*SPEF "ieee 1481-1999"
*DESIGN "sequential_multiplier_32x32"
*DATE "11:11:11 Fri 11 11, 1111"
*VENDOR "OpenRCX"
*PROGRAM "Parallel Extraction"
*VERSION "1.0"
*DESIGN_FLOW "NAME_SCOPE LOCAL" "PIN_CAP NONE"
*DIVIDER /
*DELIMITER :
*BUS_DELIMITER []
*T_UNIT 1 NS
*C_UNIT 1 PF
*R_UNIT 1 OHM
*L_UNIT 1 HENRY

*NAME_MAP
*3 clk
*4 done
*5 mcand[0]
*6 mcand[10]
*7 mcand[11]
*8 mcand[12]
*9 mcand[13]
*10 mcand[14]
*11 mcand[15]
*12 mcand[16]
*13 mcand[17]
*14 mcand[18]
*15 mcand[19]
*16 mcand[1]
*17 mcand[20]
*18 mcand[21]
*19 mcand[22]
*20 mcand[23]
*21 mcand[24]
*22 mcand[25]
*23 mcand[26]
*24 mcand[27]
*25 mcand[28]
*26 mcand[29]
*27 mcand[2]
*28 mcand[30]
*29 mcand[31]
*30 mcand[3]
*31 mcand[4]
*32 mcand[5]
*33 mcand[6]
*34 mcand[7]
*35 mcand[8]
*36 mcand[9]
*37 mplier[0]
*38 mplier[10]
*39 mplier[11]
*40 mplier[12]
*41 mplier[13]
*42 mplier[14]
*43 mplier[15]
*44 mplier[16]
*45 mplier[17]
*46 mplier[18]
*47 mplier[19]
*48 mplier[1]
*49 mplier[20]
*50 mplier[21]
*51 mplier[22]
*52 mplier[23]
*53 mplier[24]
*54 mplier[25]
*55 mplier[26]
*56 mplier[27]
*57 mplier[28]
*58 mplier[29]
*59 mplier[2]
*60 mplier[30]
*61 mplier[31]
*62 mplier[3]
*63 mplier[4]
*64 mplier[5]
*65 mplier[6]
*66 mplier[7]
*67 mplier[8]
*68 mplier[9]
*69 product[0]
*70 product[10]
*71 product[11]
*72 product[12]
*73 product[13]
*74 product[14]
*75 product[15]
*76 product[16]
*77 product[17]
*78 product[18]
*79 product[19]
*80 product[1]
*81 product[20]
*82 product[21]
*83 product[22]
*84 product[23]
*85 product[24]
*86 product[25]
*87 product[26]
*88 product[27]
*89 product[28]
*90 product[29]
*91 product[2]
*92 product[30]
*93 product[31]
*94 product[32]
*95 product[33]
*96 product[34]
*97 product[35]
*98 product[36]
*99 product[37]
*100 product[38]
*101 product[39]
*102 product[3]
*103 product[40]
*104 product[41]
*105 product[42]
*106 product[43]
*107 product[44]
*108 product[45]
*109 product[46]
*110 product[47]
*111 product[48]
*112 product[49]
*113 product[4]
*114 product[50]
*115 product[51]
*116 product[52]
*117 product[53]
*118 product[54]
*119 product[55]
*120 product[56]
*121 product[57]
*122 product[58]
*123 product[59]
*124 product[5]
*125 product[60]
*126 product[61]
*127 product[62]
*128 product[63]
*129 product[6]
*130 product[7]
*131 product[8]
*132 product[9]
*133 st
*134 _000_
*135 _001_
*136 _002_
*137 _003_
*138 _004_
*139 _005_
*140 _006_
*141 _007_
*142 _008_
*143 _009_
*144 _010_
*145 _011_
*146 _012_
*147 _013_
*148 _014_
*149 _015_
*150 _016_
*151 _017_
*152 _018_
*153 _019_
*154 _020_
*155 _021_
*156 _022_
*157 _023_
*158 _024_
*159 _025_
*160 _026_
*161 _027_
*162 _028_
*163 _029_
*164 _030_
*165 _031_
*166 _032_
*167 _033_
*168 _034_
*169 _035_
*170 _036_
*171 _037_
*172 _038_
*173 _039_
*174 _040_
*175 _041_
*176 _042_
*177 _043_
*178 _044_
*179 _045_
*180 _046_
*181 _047_
*182 _048_
*183 _049_
*184 _050_
*185 _051_
*186 _052_
*187 _053_
*188 _054_
*189 _055_
*190 _056_
*191 _057_
*192 _058_
*193 _059_
*194 _060_
*195 _061_
*196 _062_
*197 _063_
*198 _064_
*199 _065_
*200 _066_
*201 _067_
*202 _068_
*203 _069_
*204 _070_
*205 _071_
*206 _072_
*207 _073_
*208 _074_
*209 _075_
*210 _076_
*211 _077_
*212 _078_
*213 _079_
*214 _080_
*215 _081_
*216 _082_
*217 _083_
*218 _084_
*219 _085_
*220 _086_
*221 _087_
*222 _088_
*223 _089_
*224 _090_
*225 _091_
*226 _092_
*227 _093_
*228 _094_
*229 _095_
*230 _096_
*231 _097_
*232 _098_
*233 _099_
*234 _100_
*235 _101_
*236 _102_
*237 _103_
*238 _104_
*239 _105_
*240 _106_
*241 _107_
*242 _108_
*243 _109_
*244 _110_
*245 _111_
*246 _112_
*247 _113_
*248 _114_
*249 _115_
*250 _116_
*251 _117_
*252 _118_
*253 _119_
*254 _120_
*255 _121_
*256 _122_
*257 _123_
*258 _124_
*259 _125_
*260 _126_
*261 _127_
*262 _128_
*263 _129_
*264 _130_
*265 _131_
*266 _132_
*267 _133_
*268 _134_
*269 _135_
*270 _136_
*271 _137_
*272 _138_
*273 _139_
*274 _140_
*275 _141_
*276 _142_
*277 _143_
*278 _144_
*279 _145_
*280 _146_
*281 _147_
*282 _148_
*283 _149_
*284 _150_
*285 _151_
*286 _152_
*287 _153_
*288 _154_
*289 _155_
*290 _156_
*291 _157_
*292 _158_
*293 _159_
*294 _160_
*295 _161_
*296 _162_
*297 _163_
*298 _164_
*299 _165_
*300 _166_
*301 _167_
*302 _168_
*303 _169_
*304 _170_
*305 _171_
*306 _172_
*307 _173_
*308 _174_
*309 _175_
*310 _176_
*311 _177_
*312 _178_
*313 _179_
*314 _180_
*315 _181_
*316 _182_
*317 _183_
*318 _184_
*319 _185_
*320 _186_
*321 _187_
*322 _188_
*323 _189_
*324 _190_
*325 _191_
*326 _192_
*327 _193_
*328 _194_
*329 _195_
*330 _196_
*331 _197_
*332 _198_
*333 _199_
*334 _200_
*335 _201_
*336 _202_
*337 _203_
*338 _204_
*339 _205_
*340 _206_
*341 _207_
*342 _208_
*343 _209_
*344 _210_
*345 _211_
*346 _212_
*347 _213_
*348 _214_
*349 _215_
*350 _216_
*351 _217_
*352 _218_
*353 _219_
*354 _220_
*355 _221_
*356 _222_
*357 _223_
*358 _224_
*359 _225_
*360 _226_
*361 _227_
*362 _228_
*363 _229_
*364 _230_
*365 _231_
*366 _232_
*367 _233_
*368 _234_
*369 _235_
*370 _236_
*371 _237_
*372 _238_
*373 _239_
*374 _240_
*375 _241_
*376 _242_
*377 _243_
*378 _244_
*379 _245_
*380 _246_
*381 _247_
*382 _248_
*383 _249_
*384 _250_
*385 _251_
*386 _252_
*387 _253_
*388 _254_
*389 _255_
*390 _256_
*391 _257_
*392 _258_
*393 _259_
*394 _260_
*395 _261_
*396 _262_
*397 _263_
*398 _264_
*399 _265_
*400 _266_
*401 _267_
*402 _268_
*403 _269_
*404 _270_
*405 _271_
*406 _272_
*407 _273_
*408 _274_
*409 _275_
*410 _276_
*411 _277_
*412 _278_
*413 _279_
*414 _280_
*415 _281_
*416 _282_
*417 _283_
*418 _284_
*419 _285_
*420 _286_
*421 _287_
*422 _288_
*423 _289_
*424 _290_
*425 _291_
*426 _292_
*427 _293_
*428 _294_
*429 _295_
*430 _296_
*431 _297_
*432 _298_
*433 _299_
*434 _300_
*435 _301_
*436 _302_
*437 _303_
*438 _304_
*439 _305_
*440 _306_
*441 _307_
*442 _308_
*443 _309_
*444 _310_
*445 _311_
*446 _312_
*447 _313_
*448 _314_
*449 _315_
*450 _316_
*451 _317_
*452 _318_
*453 _319_
*454 _320_
*455 _321_
*456 _322_
*457 _323_
*458 _324_
*459 _325_
*460 _326_
*461 _327_
*462 _328_
*463 _329_
*464 _330_
*465 _331_
*466 _332_
*467 _333_
*468 _334_
*469 _335_
*470 _336_
*471 _337_
*472 _338_
*473 _339_
*474 _340_
*475 _341_
*476 _342_
*477 _343_
*478 _344_
*479 _345_
*480 _346_
*481 _347_
*482 _348_
*483 _349_
*484 _350_
*485 _351_
*486 _352_
*487 _353_
*488 _354_
*489 _355_
*490 _356_
*491 _357_
*492 _358_
*493 _359_
*494 _360_
*495 _361_
*496 _362_
*497 _363_
*498 _364_
*499 _365_
*500 _366_
*501 _367_
*502 _368_
*503 _369_
*504 _370_
*505 _371_
*506 _372_
*507 _373_
*508 _374_
*509 _375_
*510 _376_
*511 _377_
*512 _378_
*513 _379_
*514 _380_
*515 _381_
*516 _382_
*517 _383_
*518 _384_
*519 _385_
*520 _386_
*521 _387_
*522 _388_
*523 _389_
*524 _390_
*525 _391_
*526 _392_
*527 _393_
*528 _394_
*529 _395_
*530 _396_
*531 _397_
*532 _398_
*533 _399_
*534 _400_
*535 _401_
*536 _402_
*537 _403_
*538 _404_
*539 _405_
*540 _406_
*541 _407_
*542 _408_
*543 _409_
*544 _410_
*545 _411_
*546 _412_
*547 _413_
*548 _414_
*549 _415_
*550 _416_
*551 _417_
*552 _418_
*553 _419_
*554 _420_
*555 _421_
*556 _422_
*557 _423_
*558 _424_
*559 _425_
*560 _426_
*561 _427_
*562 _428_
*563 acu_act\[64\]
*564 clknet_0_clk
*565 clknet_3_0__leaf_clk
*566 clknet_3_1__leaf_clk
*567 clknet_3_2__leaf_clk
*568 clknet_3_3__leaf_clk
*569 clknet_3_4__leaf_clk
*570 clknet_3_5__leaf_clk
*571 clknet_3_6__leaf_clk
*572 clknet_3_7__leaf_clk
*573 cnt_act\[0\]
*574 cnt_act\[1\]
*575 cnt_act\[2\]
*576 cnt_act\[3\]
*577 cnt_act\[4\]
*578 cnt_act\[5\]
*579 estado_act\[0\]
*580 estado_act\[1\]
*581 net1
*582 net10
*583 net100
*584 net101
*585 net102
*586 net103
*587 net104
*588 net105
*589 net106
*590 net107
*591 net108
*592 net109
*593 net11
*594 net110
*595 net111
*596 net112
*597 net113
*598 net114
*599 net115
*600 net116
*601 net117
*602 net118
*603 net119
*604 net12
*605 net120
*606 net121
*607 net122
*608 net123
*609 net124
*610 net125
*611 net126
*612 net127
*613 net128
*614 net129
*615 net13
*616 net130
*617 net131
*618 net132
*619 net133
*620 net134
*621 net135
*622 net136
*623 net137
*624 net138
*625 net139
*626 net14
*627 net140
*628 net141
*629 net142
*630 net143
*631 net144
*632 net145
*633 net146
*634 net147
*635 net148
*636 net149
*637 net15
*638 net150
*639 net151
*640 net152
*641 net153
*642 net154
*643 net155
*644 net156
*645 net157
*646 net158
*647 net159
*648 net16
*649 net160
*650 net161
*651 net162
*652 net17
*653 net18
*654 net19
*655 net2
*656 net20
*657 net21
*658 net22
*659 net23
*660 net24
*661 net25
*662 net26
*663 net27
*664 net28
*665 net29
*666 net3
*667 net30
*668 net31
*669 net32
*670 net33
*671 net34
*672 net35
*673 net36
*674 net37
*675 net38
*676 net39
*677 net4
*678 net40
*679 net41
*680 net42
*681 net43
*682 net44
*683 net45
*684 net46
*685 net47
*686 net48
*687 net49
*688 net5
*689 net50
*690 net51
*691 net52
*692 net53
*693 net54
*694 net55
*695 net56
*696 net57
*697 net58
*698 net59
*699 net6
*700 net60
*701 net61
*702 net62
*703 net63
*704 net64
*705 net65
*706 net66
*707 net67
*708 net68
*709 net69
*710 net7
*711 net70
*712 net71
*713 net72
*714 net73
*715 net74
*716 net75
*717 net76
*718 net77
*719 net78
*720 net79
*721 net8
*722 net80
*723 net81
*724 net82
*725 net83
*726 net84
*727 net85
*728 net86
*729 net87
*730 net88
*731 net89
*732 net9
*733 net90
*734 net91
*735 net92
*736 net93
*737 net94
*738 net95
*739 net96
*740 net97
*741 net98
*742 net99
*743 ANTENNA_1
*744 ANTENNA_10
*745 ANTENNA_11
*746 ANTENNA_12
*747 ANTENNA_13
*748 ANTENNA_14
*749 ANTENNA_15
*750 ANTENNA_16
*751 ANTENNA_17
*752 ANTENNA_18
*753 ANTENNA_19
*754 ANTENNA_2
*755 ANTENNA_20
*756 ANTENNA_21
*757 ANTENNA_22
*758 ANTENNA_3
*759 ANTENNA_4
*760 ANTENNA_5
*761 ANTENNA_6
*762 ANTENNA_7
*763 ANTENNA_8
*764 ANTENNA_9
*765 FILLER_0_0_104
*766 FILLER_0_0_119
*767 FILLER_0_0_123
*768 FILLER_0_0_135
*769 FILLER_0_0_139
*770 FILLER_0_0_14
*771 FILLER_0_0_147
*772 FILLER_0_0_159
*773 FILLER_0_0_163
*774 FILLER_0_0_169
*775 FILLER_0_0_177
*776 FILLER_0_0_181
*777 FILLER_0_0_189
*778 FILLER_0_0_195
*779 FILLER_0_0_197
*780 FILLER_0_0_205
*781 FILLER_0_0_210
*782 FILLER_0_0_222
*783 FILLER_0_0_231
*784 FILLER_0_0_243
*785 FILLER_0_0_253
*786 FILLER_0_0_26
*787 FILLER_0_0_265
*788 FILLER_0_0_272
*789 FILLER_0_0_281
*790 FILLER_0_0_293
*791 FILLER_0_0_301
*792 FILLER_0_0_307
*793 FILLER_0_0_309
*794 FILLER_0_0_315
*795 FILLER_0_0_322
*796 FILLER_0_0_334
*797 FILLER_0_0_343
*798 FILLER_0_0_347
*799 FILLER_0_0_35
*800 FILLER_0_0_359
*801 FILLER_0_0_363
*802 FILLER_0_0_365
*803 FILLER_0_0_377
*804 FILLER_0_0_387
*805 FILLER_0_0_391
*806 FILLER_0_0_393
*807 FILLER_0_0_401
*808 FILLER_0_0_408
*809 FILLER_0_0_421
*810 FILLER_0_0_429
*811 FILLER_0_0_441
*812 FILLER_0_0_447
*813 FILLER_0_0_449
*814 FILLER_0_0_461
*815 FILLER_0_0_47
*816 FILLER_0_0_473
*817 FILLER_0_0_483
*818 FILLER_0_0_491
*819 FILLER_0_0_499
*820 FILLER_0_0_503
*821 FILLER_0_0_505
*822 FILLER_0_0_513
*823 FILLER_0_0_517
*824 FILLER_0_0_529
*825 FILLER_0_0_533
*826 FILLER_0_0_541
*827 FILLER_0_0_553
*828 FILLER_0_0_561
*829 FILLER_0_0_57
*830 FILLER_0_0_573
*831 FILLER_0_0_583
*832 FILLER_0_0_587
*833 FILLER_0_0_589
*834 FILLER_0_0_601
*835 FILLER_0_0_609
*836 FILLER_0_0_615
*837 FILLER_0_0_617
*838 FILLER_0_0_625
*839 FILLER_0_0_632
*840 FILLER_0_0_645
*841 FILLER_0_0_653
*842 FILLER_0_0_665
*843 FILLER_0_0_671
*844 FILLER_0_0_679
*845 FILLER_0_0_687
*846 FILLER_0_0_69
*847 FILLER_0_0_693
*848 FILLER_0_0_77
*849 FILLER_0_0_83
*850 FILLER_0_0_85
*851 FILLER_0_0_9
*852 FILLER_0_0_93
*853 FILLER_0_100_109
*854 FILLER_0_100_121
*855 FILLER_0_100_133
*856 FILLER_0_100_139
*857 FILLER_0_100_141
*858 FILLER_0_100_15
*859 FILLER_0_100_153
*860 FILLER_0_100_165
*861 FILLER_0_100_177
*862 FILLER_0_100_189
*863 FILLER_0_100_195
*864 FILLER_0_100_197
*865 FILLER_0_100_209
*866 FILLER_0_100_221
*867 FILLER_0_100_233
*868 FILLER_0_100_245
*869 FILLER_0_100_251
*870 FILLER_0_100_253
*871 FILLER_0_100_261
*872 FILLER_0_100_268
*873 FILLER_0_100_27
*874 FILLER_0_100_276
*875 FILLER_0_100_287
*876 FILLER_0_100_29
*877 FILLER_0_100_299
*878 FILLER_0_100_3
*879 FILLER_0_100_307
*880 FILLER_0_100_318
*881 FILLER_0_100_330
*882 FILLER_0_100_342
*883 FILLER_0_100_354
*884 FILLER_0_100_362
*885 FILLER_0_100_365
*886 FILLER_0_100_377
*887 FILLER_0_100_389
*888 FILLER_0_100_401
*889 FILLER_0_100_41
*890 FILLER_0_100_413
*891 FILLER_0_100_419
*892 FILLER_0_100_421
*893 FILLER_0_100_433
*894 FILLER_0_100_445
*895 FILLER_0_100_466
*896 FILLER_0_100_474
*897 FILLER_0_100_483
*898 FILLER_0_100_495
*899 FILLER_0_100_507
*900 FILLER_0_100_519
*901 FILLER_0_100_53
*902 FILLER_0_100_531
*903 FILLER_0_100_533
*904 FILLER_0_100_545
*905 FILLER_0_100_557
*906 FILLER_0_100_569
*907 FILLER_0_100_581
*908 FILLER_0_100_587
*909 FILLER_0_100_589
*910 FILLER_0_100_601
*911 FILLER_0_100_613
*912 FILLER_0_100_625
*913 FILLER_0_100_637
*914 FILLER_0_100_643
*915 FILLER_0_100_645
*916 FILLER_0_100_65
*917 FILLER_0_100_657
*918 FILLER_0_100_669
*919 FILLER_0_100_681
*920 FILLER_0_100_693
*921 FILLER_0_100_697
*922 FILLER_0_100_77
*923 FILLER_0_100_83
*924 FILLER_0_100_85
*925 FILLER_0_100_97
*926 FILLER_0_101_105
*927 FILLER_0_101_111
*928 FILLER_0_101_113
*929 FILLER_0_101_125
*930 FILLER_0_101_137
*931 FILLER_0_101_149
*932 FILLER_0_101_161
*933 FILLER_0_101_167
*934 FILLER_0_101_169
*935 FILLER_0_101_181
*936 FILLER_0_101_19
*937 FILLER_0_101_193
*938 FILLER_0_101_205
*939 FILLER_0_101_217
*940 FILLER_0_101_223
*941 FILLER_0_101_225
*942 FILLER_0_101_237
*943 FILLER_0_101_249
*944 FILLER_0_101_261
*945 FILLER_0_101_273
*946 FILLER_0_101_279
*947 FILLER_0_101_281
*948 FILLER_0_101_293
*949 FILLER_0_101_305
*950 FILLER_0_101_31
*951 FILLER_0_101_317
*952 FILLER_0_101_329
*953 FILLER_0_101_335
*954 FILLER_0_101_337
*955 FILLER_0_101_349
*956 FILLER_0_101_361
*957 FILLER_0_101_367
*958 FILLER_0_101_373
*959 FILLER_0_101_385
*960 FILLER_0_101_391
*961 FILLER_0_101_393
*962 FILLER_0_101_405
*963 FILLER_0_101_417
*964 FILLER_0_101_425
*965 FILLER_0_101_43
*966 FILLER_0_101_436
*967 FILLER_0_101_455
*968 FILLER_0_101_467
*969 FILLER_0_101_479
*970 FILLER_0_101_484
*971 FILLER_0_101_490
*972 FILLER_0_101_499
*973 FILLER_0_101_503
*974 FILLER_0_101_505
*975 FILLER_0_101_517
*976 FILLER_0_101_529
*977 FILLER_0_101_541
*978 FILLER_0_101_55
*979 FILLER_0_101_553
*980 FILLER_0_101_559
*981 FILLER_0_101_561
*982 FILLER_0_101_57
*983 FILLER_0_101_573
*984 FILLER_0_101_585
*985 FILLER_0_101_597
*986 FILLER_0_101_609
*987 FILLER_0_101_615
*988 FILLER_0_101_617
*989 FILLER_0_101_629
*990 FILLER_0_101_641
*991 FILLER_0_101_653
*992 FILLER_0_101_665
*993 FILLER_0_101_671
*994 FILLER_0_101_673
*995 FILLER_0_101_685
*996 FILLER_0_101_69
*997 FILLER_0_101_693
*998 FILLER_0_101_7
*999 FILLER_0_101_81
*1000 FILLER_0_101_93
*1001 FILLER_0_102_109
*1002 FILLER_0_102_121
*1003 FILLER_0_102_133
*1004 FILLER_0_102_139
*1005 FILLER_0_102_141
*1006 FILLER_0_102_15
*1007 FILLER_0_102_153
*1008 FILLER_0_102_165
*1009 FILLER_0_102_177
*1010 FILLER_0_102_189
*1011 FILLER_0_102_195
*1012 FILLER_0_102_197
*1013 FILLER_0_102_209
*1014 FILLER_0_102_221
*1015 FILLER_0_102_233
*1016 FILLER_0_102_251
*1017 FILLER_0_102_258
*1018 FILLER_0_102_262
*1019 FILLER_0_102_266
*1020 FILLER_0_102_27
*1021 FILLER_0_102_278
*1022 FILLER_0_102_29
*1023 FILLER_0_102_290
*1024 FILLER_0_102_3
*1025 FILLER_0_102_302
*1026 FILLER_0_102_309
*1027 FILLER_0_102_321
*1028 FILLER_0_102_333
*1029 FILLER_0_102_345
*1030 FILLER_0_102_357
*1031 FILLER_0_102_363
*1032 FILLER_0_102_365
*1033 FILLER_0_102_377
*1034 FILLER_0_102_389
*1035 FILLER_0_102_401
*1036 FILLER_0_102_41
*1037 FILLER_0_102_413
*1038 FILLER_0_102_419
*1039 FILLER_0_102_421
*1040 FILLER_0_102_433
*1041 FILLER_0_102_445
*1042 FILLER_0_102_457
*1043 FILLER_0_102_469
*1044 FILLER_0_102_475
*1045 FILLER_0_102_484
*1046 FILLER_0_102_496
*1047 FILLER_0_102_508
*1048 FILLER_0_102_520
*1049 FILLER_0_102_53
*1050 FILLER_0_102_533
*1051 FILLER_0_102_545
*1052 FILLER_0_102_557
*1053 FILLER_0_102_569
*1054 FILLER_0_102_581
*1055 FILLER_0_102_587
*1056 FILLER_0_102_589
*1057 FILLER_0_102_601
*1058 FILLER_0_102_613
*1059 FILLER_0_102_625
*1060 FILLER_0_102_637
*1061 FILLER_0_102_643
*1062 FILLER_0_102_645
*1063 FILLER_0_102_65
*1064 FILLER_0_102_657
*1065 FILLER_0_102_669
*1066 FILLER_0_102_681
*1067 FILLER_0_102_693
*1068 FILLER_0_102_697
*1069 FILLER_0_102_77
*1070 FILLER_0_102_83
*1071 FILLER_0_102_85
*1072 FILLER_0_102_97
*1073 FILLER_0_103_105
*1074 FILLER_0_103_111
*1075 FILLER_0_103_113
*1076 FILLER_0_103_125
*1077 FILLER_0_103_137
*1078 FILLER_0_103_149
*1079 FILLER_0_103_15
*1080 FILLER_0_103_161
*1081 FILLER_0_103_167
*1082 FILLER_0_103_169
*1083 FILLER_0_103_181
*1084 FILLER_0_103_193
*1085 FILLER_0_103_205
*1086 FILLER_0_103_217
*1087 FILLER_0_103_223
*1088 FILLER_0_103_225
*1089 FILLER_0_103_237
*1090 FILLER_0_103_249
*1091 FILLER_0_103_261
*1092 FILLER_0_103_27
*1093 FILLER_0_103_273
*1094 FILLER_0_103_279
*1095 FILLER_0_103_298
*1096 FILLER_0_103_3
*1097 FILLER_0_103_310
*1098 FILLER_0_103_322
*1099 FILLER_0_103_334
*1100 FILLER_0_103_337
*1101 FILLER_0_103_349
*1102 FILLER_0_103_361
*1103 FILLER_0_103_373
*1104 FILLER_0_103_385
*1105 FILLER_0_103_39
*1106 FILLER_0_103_391
*1107 FILLER_0_103_393
*1108 FILLER_0_103_405
*1109 FILLER_0_103_417
*1110 FILLER_0_103_429
*1111 FILLER_0_103_441
*1112 FILLER_0_103_447
*1113 FILLER_0_103_449
*1114 FILLER_0_103_461
*1115 FILLER_0_103_473
*1116 FILLER_0_103_485
*1117 FILLER_0_103_497
*1118 FILLER_0_103_503
*1119 FILLER_0_103_505
*1120 FILLER_0_103_51
*1121 FILLER_0_103_517
*1122 FILLER_0_103_529
*1123 FILLER_0_103_541
*1124 FILLER_0_103_55
*1125 FILLER_0_103_553
*1126 FILLER_0_103_559
*1127 FILLER_0_103_561
*1128 FILLER_0_103_57
*1129 FILLER_0_103_573
*1130 FILLER_0_103_585
*1131 FILLER_0_103_597
*1132 FILLER_0_103_609
*1133 FILLER_0_103_615
*1134 FILLER_0_103_617
*1135 FILLER_0_103_629
*1136 FILLER_0_103_641
*1137 FILLER_0_103_653
*1138 FILLER_0_103_665
*1139 FILLER_0_103_671
*1140 FILLER_0_103_673
*1141 FILLER_0_103_685
*1142 FILLER_0_103_69
*1143 FILLER_0_103_697
*1144 FILLER_0_103_81
*1145 FILLER_0_103_93
*1146 FILLER_0_104_109
*1147 FILLER_0_104_121
*1148 FILLER_0_104_133
*1149 FILLER_0_104_139
*1150 FILLER_0_104_141
*1151 FILLER_0_104_15
*1152 FILLER_0_104_153
*1153 FILLER_0_104_165
*1154 FILLER_0_104_177
*1155 FILLER_0_104_189
*1156 FILLER_0_104_195
*1157 FILLER_0_104_197
*1158 FILLER_0_104_209
*1159 FILLER_0_104_221
*1160 FILLER_0_104_233
*1161 FILLER_0_104_245
*1162 FILLER_0_104_251
*1163 FILLER_0_104_253
*1164 FILLER_0_104_265
*1165 FILLER_0_104_27
*1166 FILLER_0_104_277
*1167 FILLER_0_104_289
*1168 FILLER_0_104_29
*1169 FILLER_0_104_3
*1170 FILLER_0_104_301
*1171 FILLER_0_104_307
*1172 FILLER_0_104_309
*1173 FILLER_0_104_327
*1174 FILLER_0_104_339
*1175 FILLER_0_104_351
*1176 FILLER_0_104_363
*1177 FILLER_0_104_365
*1178 FILLER_0_104_377
*1179 FILLER_0_104_389
*1180 FILLER_0_104_401
*1181 FILLER_0_104_41
*1182 FILLER_0_104_413
*1183 FILLER_0_104_419
*1184 FILLER_0_104_430
*1185 FILLER_0_104_442
*1186 FILLER_0_104_454
*1187 FILLER_0_104_466
*1188 FILLER_0_104_474
*1189 FILLER_0_104_477
*1190 FILLER_0_104_489
*1191 FILLER_0_104_501
*1192 FILLER_0_104_513
*1193 FILLER_0_104_525
*1194 FILLER_0_104_53
*1195 FILLER_0_104_531
*1196 FILLER_0_104_533
*1197 FILLER_0_104_545
*1198 FILLER_0_104_557
*1199 FILLER_0_104_569
*1200 FILLER_0_104_581
*1201 FILLER_0_104_587
*1202 FILLER_0_104_589
*1203 FILLER_0_104_601
*1204 FILLER_0_104_613
*1205 FILLER_0_104_625
*1206 FILLER_0_104_637
*1207 FILLER_0_104_643
*1208 FILLER_0_104_645
*1209 FILLER_0_104_65
*1210 FILLER_0_104_657
*1211 FILLER_0_104_669
*1212 FILLER_0_104_681
*1213 FILLER_0_104_693
*1214 FILLER_0_104_697
*1215 FILLER_0_104_77
*1216 FILLER_0_104_83
*1217 FILLER_0_104_85
*1218 FILLER_0_104_97
*1219 FILLER_0_105_105
*1220 FILLER_0_105_111
*1221 FILLER_0_105_113
*1222 FILLER_0_105_125
*1223 FILLER_0_105_137
*1224 FILLER_0_105_149
*1225 FILLER_0_105_15
*1226 FILLER_0_105_161
*1227 FILLER_0_105_167
*1228 FILLER_0_105_169
*1229 FILLER_0_105_181
*1230 FILLER_0_105_193
*1231 FILLER_0_105_205
*1232 FILLER_0_105_217
*1233 FILLER_0_105_223
*1234 FILLER_0_105_225
*1235 FILLER_0_105_237
*1236 FILLER_0_105_249
*1237 FILLER_0_105_261
*1238 FILLER_0_105_27
*1239 FILLER_0_105_273
*1240 FILLER_0_105_279
*1241 FILLER_0_105_281
*1242 FILLER_0_105_293
*1243 FILLER_0_105_3
*1244 FILLER_0_105_305
*1245 FILLER_0_105_317
*1246 FILLER_0_105_329
*1247 FILLER_0_105_335
*1248 FILLER_0_105_350
*1249 FILLER_0_105_371
*1250 FILLER_0_105_383
*1251 FILLER_0_105_39
*1252 FILLER_0_105_391
*1253 FILLER_0_105_393
*1254 FILLER_0_105_410
*1255 FILLER_0_105_422
*1256 FILLER_0_105_434
*1257 FILLER_0_105_446
*1258 FILLER_0_105_455
*1259 FILLER_0_105_467
*1260 FILLER_0_105_479
*1261 FILLER_0_105_491
*1262 FILLER_0_105_503
*1263 FILLER_0_105_505
*1264 FILLER_0_105_51
*1265 FILLER_0_105_517
*1266 FILLER_0_105_529
*1267 FILLER_0_105_541
*1268 FILLER_0_105_55
*1269 FILLER_0_105_553
*1270 FILLER_0_105_559
*1271 FILLER_0_105_561
*1272 FILLER_0_105_57
*1273 FILLER_0_105_573
*1274 FILLER_0_105_585
*1275 FILLER_0_105_597
*1276 FILLER_0_105_609
*1277 FILLER_0_105_615
*1278 FILLER_0_105_617
*1279 FILLER_0_105_629
*1280 FILLER_0_105_641
*1281 FILLER_0_105_653
*1282 FILLER_0_105_665
*1283 FILLER_0_105_671
*1284 FILLER_0_105_673
*1285 FILLER_0_105_685
*1286 FILLER_0_105_69
*1287 FILLER_0_105_691
*1288 FILLER_0_105_81
*1289 FILLER_0_105_93
*1290 FILLER_0_106_109
*1291 FILLER_0_106_121
*1292 FILLER_0_106_13
*1293 FILLER_0_106_133
*1294 FILLER_0_106_139
*1295 FILLER_0_106_141
*1296 FILLER_0_106_153
*1297 FILLER_0_106_165
*1298 FILLER_0_106_177
*1299 FILLER_0_106_189
*1300 FILLER_0_106_195
*1301 FILLER_0_106_197
*1302 FILLER_0_106_209
*1303 FILLER_0_106_221
*1304 FILLER_0_106_233
*1305 FILLER_0_106_245
*1306 FILLER_0_106_25
*1307 FILLER_0_106_251
*1308 FILLER_0_106_253
*1309 FILLER_0_106_265
*1310 FILLER_0_106_277
*1311 FILLER_0_106_289
*1312 FILLER_0_106_29
*1313 FILLER_0_106_301
*1314 FILLER_0_106_307
*1315 FILLER_0_106_309
*1316 FILLER_0_106_321
*1317 FILLER_0_106_333
*1318 FILLER_0_106_345
*1319 FILLER_0_106_357
*1320 FILLER_0_106_363
*1321 FILLER_0_106_365
*1322 FILLER_0_106_377
*1323 FILLER_0_106_389
*1324 FILLER_0_106_398
*1325 FILLER_0_106_41
*1326 FILLER_0_106_410
*1327 FILLER_0_106_418
*1328 FILLER_0_106_421
*1329 FILLER_0_106_433
*1330 FILLER_0_106_445
*1331 FILLER_0_106_457
*1332 FILLER_0_106_469
*1333 FILLER_0_106_475
*1334 FILLER_0_106_477
*1335 FILLER_0_106_489
*1336 FILLER_0_106_501
*1337 FILLER_0_106_513
*1338 FILLER_0_106_525
*1339 FILLER_0_106_53
*1340 FILLER_0_106_531
*1341 FILLER_0_106_533
*1342 FILLER_0_106_545
*1343 FILLER_0_106_557
*1344 FILLER_0_106_569
*1345 FILLER_0_106_581
*1346 FILLER_0_106_587
*1347 FILLER_0_106_589
*1348 FILLER_0_106_601
*1349 FILLER_0_106_613
*1350 FILLER_0_106_625
*1351 FILLER_0_106_637
*1352 FILLER_0_106_643
*1353 FILLER_0_106_645
*1354 FILLER_0_106_65
*1355 FILLER_0_106_657
*1356 FILLER_0_106_669
*1357 FILLER_0_106_681
*1358 FILLER_0_106_693
*1359 FILLER_0_106_697
*1360 FILLER_0_106_77
*1361 FILLER_0_106_83
*1362 FILLER_0_106_85
*1363 FILLER_0_106_9
*1364 FILLER_0_106_97
*1365 FILLER_0_107_105
*1366 FILLER_0_107_111
*1367 FILLER_0_107_113
*1368 FILLER_0_107_125
*1369 FILLER_0_107_137
*1370 FILLER_0_107_149
*1371 FILLER_0_107_15
*1372 FILLER_0_107_161
*1373 FILLER_0_107_167
*1374 FILLER_0_107_169
*1375 FILLER_0_107_181
*1376 FILLER_0_107_193
*1377 FILLER_0_107_205
*1378 FILLER_0_107_217
*1379 FILLER_0_107_223
*1380 FILLER_0_107_225
*1381 FILLER_0_107_237
*1382 FILLER_0_107_249
*1383 FILLER_0_107_261
*1384 FILLER_0_107_27
*1385 FILLER_0_107_273
*1386 FILLER_0_107_279
*1387 FILLER_0_107_281
*1388 FILLER_0_107_293
*1389 FILLER_0_107_3
*1390 FILLER_0_107_305
*1391 FILLER_0_107_317
*1392 FILLER_0_107_329
*1393 FILLER_0_107_335
*1394 FILLER_0_107_337
*1395 FILLER_0_107_349
*1396 FILLER_0_107_357
*1397 FILLER_0_107_363
*1398 FILLER_0_107_375
*1399 FILLER_0_107_387
*1400 FILLER_0_107_39
*1401 FILLER_0_107_391
*1402 FILLER_0_107_393
*1403 FILLER_0_107_402
*1404 FILLER_0_107_414
*1405 FILLER_0_107_426
*1406 FILLER_0_107_449
*1407 FILLER_0_107_461
*1408 FILLER_0_107_473
*1409 FILLER_0_107_485
*1410 FILLER_0_107_497
*1411 FILLER_0_107_503
*1412 FILLER_0_107_505
*1413 FILLER_0_107_51
*1414 FILLER_0_107_517
*1415 FILLER_0_107_529
*1416 FILLER_0_107_541
*1417 FILLER_0_107_55
*1418 FILLER_0_107_553
*1419 FILLER_0_107_559
*1420 FILLER_0_107_561
*1421 FILLER_0_107_57
*1422 FILLER_0_107_573
*1423 FILLER_0_107_585
*1424 FILLER_0_107_597
*1425 FILLER_0_107_609
*1426 FILLER_0_107_615
*1427 FILLER_0_107_617
*1428 FILLER_0_107_629
*1429 FILLER_0_107_641
*1430 FILLER_0_107_653
*1431 FILLER_0_107_665
*1432 FILLER_0_107_671
*1433 FILLER_0_107_673
*1434 FILLER_0_107_685
*1435 FILLER_0_107_69
*1436 FILLER_0_107_697
*1437 FILLER_0_107_81
*1438 FILLER_0_107_93
*1439 FILLER_0_108_109
*1440 FILLER_0_108_121
*1441 FILLER_0_108_133
*1442 FILLER_0_108_139
*1443 FILLER_0_108_141
*1444 FILLER_0_108_15
*1445 FILLER_0_108_153
*1446 FILLER_0_108_165
*1447 FILLER_0_108_177
*1448 FILLER_0_108_189
*1449 FILLER_0_108_195
*1450 FILLER_0_108_197
*1451 FILLER_0_108_209
*1452 FILLER_0_108_221
*1453 FILLER_0_108_233
*1454 FILLER_0_108_245
*1455 FILLER_0_108_251
*1456 FILLER_0_108_253
*1457 FILLER_0_108_265
*1458 FILLER_0_108_27
*1459 FILLER_0_108_277
*1460 FILLER_0_108_289
*1461 FILLER_0_108_29
*1462 FILLER_0_108_3
*1463 FILLER_0_108_301
*1464 FILLER_0_108_307
*1465 FILLER_0_108_309
*1466 FILLER_0_108_321
*1467 FILLER_0_108_333
*1468 FILLER_0_108_345
*1469 FILLER_0_108_357
*1470 FILLER_0_108_363
*1471 FILLER_0_108_365
*1472 FILLER_0_108_377
*1473 FILLER_0_108_389
*1474 FILLER_0_108_397
*1475 FILLER_0_108_41
*1476 FILLER_0_108_416
*1477 FILLER_0_108_421
*1478 FILLER_0_108_433
*1479 FILLER_0_108_445
*1480 FILLER_0_108_457
*1481 FILLER_0_108_469
*1482 FILLER_0_108_475
*1483 FILLER_0_108_477
*1484 FILLER_0_108_489
*1485 FILLER_0_108_501
*1486 FILLER_0_108_513
*1487 FILLER_0_108_525
*1488 FILLER_0_108_53
*1489 FILLER_0_108_531
*1490 FILLER_0_108_533
*1491 FILLER_0_108_545
*1492 FILLER_0_108_557
*1493 FILLER_0_108_569
*1494 FILLER_0_108_581
*1495 FILLER_0_108_587
*1496 FILLER_0_108_589
*1497 FILLER_0_108_601
*1498 FILLER_0_108_613
*1499 FILLER_0_108_625
*1500 FILLER_0_108_637
*1501 FILLER_0_108_643
*1502 FILLER_0_108_645
*1503 FILLER_0_108_65
*1504 FILLER_0_108_657
*1505 FILLER_0_108_669
*1506 FILLER_0_108_681
*1507 FILLER_0_108_693
*1508 FILLER_0_108_697
*1509 FILLER_0_108_77
*1510 FILLER_0_108_83
*1511 FILLER_0_108_85
*1512 FILLER_0_108_97
*1513 FILLER_0_109_105
*1514 FILLER_0_109_111
*1515 FILLER_0_109_113
*1516 FILLER_0_109_125
*1517 FILLER_0_109_137
*1518 FILLER_0_109_149
*1519 FILLER_0_109_15
*1520 FILLER_0_109_161
*1521 FILLER_0_109_167
*1522 FILLER_0_109_169
*1523 FILLER_0_109_181
*1524 FILLER_0_109_193
*1525 FILLER_0_109_205
*1526 FILLER_0_109_217
*1527 FILLER_0_109_223
*1528 FILLER_0_109_225
*1529 FILLER_0_109_237
*1530 FILLER_0_109_249
*1531 FILLER_0_109_261
*1532 FILLER_0_109_27
*1533 FILLER_0_109_273
*1534 FILLER_0_109_279
*1535 FILLER_0_109_281
*1536 FILLER_0_109_293
*1537 FILLER_0_109_3
*1538 FILLER_0_109_305
*1539 FILLER_0_109_317
*1540 FILLER_0_109_329
*1541 FILLER_0_109_335
*1542 FILLER_0_109_337
*1543 FILLER_0_109_349
*1544 FILLER_0_109_357
*1545 FILLER_0_109_375
*1546 FILLER_0_109_387
*1547 FILLER_0_109_39
*1548 FILLER_0_109_391
*1549 FILLER_0_109_393
*1550 FILLER_0_109_405
*1551 FILLER_0_109_417
*1552 FILLER_0_109_429
*1553 FILLER_0_109_441
*1554 FILLER_0_109_447
*1555 FILLER_0_109_449
*1556 FILLER_0_109_461
*1557 FILLER_0_109_473
*1558 FILLER_0_109_485
*1559 FILLER_0_109_497
*1560 FILLER_0_109_503
*1561 FILLER_0_109_505
*1562 FILLER_0_109_51
*1563 FILLER_0_109_517
*1564 FILLER_0_109_529
*1565 FILLER_0_109_541
*1566 FILLER_0_109_55
*1567 FILLER_0_109_553
*1568 FILLER_0_109_559
*1569 FILLER_0_109_561
*1570 FILLER_0_109_57
*1571 FILLER_0_109_573
*1572 FILLER_0_109_585
*1573 FILLER_0_109_597
*1574 FILLER_0_109_609
*1575 FILLER_0_109_615
*1576 FILLER_0_109_617
*1577 FILLER_0_109_629
*1578 FILLER_0_109_641
*1579 FILLER_0_109_653
*1580 FILLER_0_109_665
*1581 FILLER_0_109_671
*1582 FILLER_0_109_673
*1583 FILLER_0_109_685
*1584 FILLER_0_109_69
*1585 FILLER_0_109_691
*1586 FILLER_0_109_81
*1587 FILLER_0_109_93
*1588 FILLER_0_10_109
*1589 FILLER_0_10_121
*1590 FILLER_0_10_133
*1591 FILLER_0_10_139
*1592 FILLER_0_10_141
*1593 FILLER_0_10_15
*1594 FILLER_0_10_153
*1595 FILLER_0_10_165
*1596 FILLER_0_10_177
*1597 FILLER_0_10_189
*1598 FILLER_0_10_195
*1599 FILLER_0_10_197
*1600 FILLER_0_10_209
*1601 FILLER_0_10_221
*1602 FILLER_0_10_233
*1603 FILLER_0_10_245
*1604 FILLER_0_10_251
*1605 FILLER_0_10_253
*1606 FILLER_0_10_265
*1607 FILLER_0_10_27
*1608 FILLER_0_10_277
*1609 FILLER_0_10_289
*1610 FILLER_0_10_29
*1611 FILLER_0_10_3
*1612 FILLER_0_10_301
*1613 FILLER_0_10_307
*1614 FILLER_0_10_309
*1615 FILLER_0_10_321
*1616 FILLER_0_10_333
*1617 FILLER_0_10_345
*1618 FILLER_0_10_357
*1619 FILLER_0_10_363
*1620 FILLER_0_10_365
*1621 FILLER_0_10_377
*1622 FILLER_0_10_389
*1623 FILLER_0_10_401
*1624 FILLER_0_10_41
*1625 FILLER_0_10_413
*1626 FILLER_0_10_419
*1627 FILLER_0_10_421
*1628 FILLER_0_10_433
*1629 FILLER_0_10_445
*1630 FILLER_0_10_457
*1631 FILLER_0_10_469
*1632 FILLER_0_10_475
*1633 FILLER_0_10_477
*1634 FILLER_0_10_489
*1635 FILLER_0_10_501
*1636 FILLER_0_10_513
*1637 FILLER_0_10_525
*1638 FILLER_0_10_53
*1639 FILLER_0_10_531
*1640 FILLER_0_10_533
*1641 FILLER_0_10_545
*1642 FILLER_0_10_557
*1643 FILLER_0_10_569
*1644 FILLER_0_10_581
*1645 FILLER_0_10_587
*1646 FILLER_0_10_589
*1647 FILLER_0_10_601
*1648 FILLER_0_10_613
*1649 FILLER_0_10_625
*1650 FILLER_0_10_637
*1651 FILLER_0_10_643
*1652 FILLER_0_10_645
*1653 FILLER_0_10_65
*1654 FILLER_0_10_657
*1655 FILLER_0_10_669
*1656 FILLER_0_10_681
*1657 FILLER_0_10_693
*1658 FILLER_0_10_697
*1659 FILLER_0_10_77
*1660 FILLER_0_10_83
*1661 FILLER_0_10_85
*1662 FILLER_0_10_97
*1663 FILLER_0_110_109
*1664 FILLER_0_110_121
*1665 FILLER_0_110_133
*1666 FILLER_0_110_139
*1667 FILLER_0_110_141
*1668 FILLER_0_110_153
*1669 FILLER_0_110_165
*1670 FILLER_0_110_177
*1671 FILLER_0_110_189
*1672 FILLER_0_110_195
*1673 FILLER_0_110_197
*1674 FILLER_0_110_209
*1675 FILLER_0_110_21
*1676 FILLER_0_110_221
*1677 FILLER_0_110_233
*1678 FILLER_0_110_245
*1679 FILLER_0_110_251