* NGSPICE file created from sequential_multiplier_32x32.ext - technology: sky130A

* Black-box entry subcircuit for sky130_fd_sc_hd__decap_6 abstract view
.subckt sky130_fd_sc_hd__decap_6 VGND VNB VPB VPWR
.ends

* Black-box entry subcircuit for sky130_fd_sc_hd__decap_3 abstract view
.subckt sky130_fd_sc_hd__decap_3 VGND VNB VPB VPWR
.ends

* Black-box entry subcircuit for sky130_ef_sc_hd__decap_12 abstract view
.subckt sky130_ef_sc_hd__decap_12 VGND VPWR VPB VNB
.ends

* Black-box entry subcircuit for sky130_fd_sc_hd__tapvpwrvgnd_1 abstract view
.subckt sky130_fd_sc_hd__tapvpwrvgnd_1 VGND VPWR
.ends

* Black-box entry subcircuit for sky130_fd_sc_hd__nand2_1 abstract view
.subckt sky130_fd_sc_hd__nand2_1 A B VGND VNB VPB VPWR Y
.ends

* Black-box entry subcircuit for sky130_fd_sc_hd__fill_1 abstract view
.subckt sky130_fd_sc_hd__fill_1 VGND VNB VPB VPWR
.ends

* Black-box entry subcircuit for sky130_fd_sc_hd__nor2_2 abstract view
.subckt sky130_fd_sc_hd__nor2_2 A B VGND VNB VPB VPWR Y
.ends

* Black-box entry subcircuit for sky130_fd_sc_hd__decap_4 abstract view
.subckt sky130_fd_sc_hd__decap_4 VGND VNB VPB VPWR
.ends

* Black-box entry subcircuit for sky130_fd_sc_hd__decap_8 abstract view
.subckt sky130_fd_sc_hd__decap_8 VGND VNB VPB VPWR
.ends

* Black-box entry subcircuit for sky130_fd_sc_hd__fill_2 abstract view
.subckt sky130_fd_sc_hd__fill_2 VGND VNB VPB VPWR
.ends

* Black-box entry subcircuit for sky130_fd_sc_hd__dfxtp_2 abstract view
.subckt sky130_fd_sc_hd__dfxtp_2 CLK D VGND VNB VPB VPWR Q
.ends

* Black-box entry subcircuit for sky130_fd_sc_hd__a21oi_1 abstract view
.subckt sky130_fd_sc_hd__a21oi_1 A1 A2 B1 VGND VNB VPB VPWR Y
.ends

* Black-box entry subcircuit for sky130_fd_sc_hd__dfxtp_4 abstract view
.subckt sky130_fd_sc_hd__dfxtp_4 CLK D VGND VNB VPB VPWR Q
.ends

* Black-box entry subcircuit for sky130_fd_sc_hd__o21a_1 abstract view
.subckt sky130_fd_sc_hd__o21a_1 A1 A2 B1 VGND VNB VPB VPWR X
.ends

* Black-box entry subcircuit for sky130_fd_sc_hd__dlygate4sd3_1 abstract view
.subckt sky130_fd_sc_hd__dlygate4sd3_1 A VGND VNB VPB VPWR X
.ends

* Black-box entry subcircuit for sky130_fd_sc_hd__and2_1 abstract view
.subckt sky130_fd_sc_hd__and2_1 A B VGND VNB VPB VPWR X
.ends

* Black-box entry subcircuit for sky130_fd_sc_hd__nor2_1 abstract view
.subckt sky130_fd_sc_hd__nor2_1 A B VGND VNB VPB VPWR Y
.ends

* Black-box entry subcircuit for sky130_fd_sc_hd__diode_2 abstract view
.subckt sky130_fd_sc_hd__diode_2 DIODE VGND VNB VPB VPWR
.ends

* Black-box entry subcircuit for sky130_fd_sc_hd__clkbuf_4 abstract view
.subckt sky130_fd_sc_hd__clkbuf_4 A VGND VNB VPB VPWR X
.ends

* Black-box entry subcircuit for sky130_fd_sc_hd__buf_2 abstract view
.subckt sky130_fd_sc_hd__buf_2 A VGND VNB VPB VPWR X
.ends

* Black-box entry subcircuit for sky130_fd_sc_hd__xnor2_1 abstract view
.subckt sky130_fd_sc_hd__xnor2_1 A B VGND VNB VPB VPWR Y
.ends

* Black-box entry subcircuit for sky130_fd_sc_hd__or2_1 abstract view
.subckt sky130_fd_sc_hd__or2_1 A B VGND VNB VPB VPWR X
.ends

* Black-box entry subcircuit for sky130_fd_sc_hd__clkbuf_16 abstract view
.subckt sky130_fd_sc_hd__clkbuf_16 A VGND VNB VPB VPWR X
.ends

* Black-box entry subcircuit for sky130_fd_sc_hd__inv_2 abstract view
.subckt sky130_fd_sc_hd__inv_2 A VGND VNB VPB VPWR Y
.ends

* Black-box entry subcircuit for sky130_fd_sc_hd__a221o_1 abstract view
.subckt sky130_fd_sc_hd__a221o_1 A1 A2 B1 B2 C1 VGND VNB VPB VPWR X
.ends

* Black-box entry subcircuit for sky130_fd_sc_hd__mux2_1 abstract view
.subckt sky130_fd_sc_hd__mux2_1 A0 A1 S VGND VNB VPB VPWR X
.ends

* Black-box entry subcircuit for sky130_fd_sc_hd__dfxtp_1 abstract view
.subckt sky130_fd_sc_hd__dfxtp_1 CLK D VGND VNB VPB VPWR Q
.ends

* Black-box entry subcircuit for sky130_fd_sc_hd__a21boi_1 abstract view
.subckt sky130_fd_sc_hd__a21boi_1 A1 A2 B1_N VGND VNB VPB VPWR Y
.ends

* Black-box entry subcircuit for sky130_fd_sc_hd__a31o_1 abstract view
.subckt sky130_fd_sc_hd__a31o_1 A1 A2 A3 B1 VGND VNB VPB VPWR X
.ends

* Black-box entry subcircuit for sky130_fd_sc_hd__o311a_1 abstract view
.subckt sky130_fd_sc_hd__o311a_1 A1 A2 A3 B1 C1 VGND VNB VPB VPWR X
.ends

* Black-box entry subcircuit for sky130_fd_sc_hd__clkbuf_1 abstract view
.subckt sky130_fd_sc_hd__clkbuf_1 A VGND VNB VPB VPWR X
.ends

* Black-box entry subcircuit for sky130_fd_sc_hd__o221a_1 abstract view
.subckt sky130_fd_sc_hd__o221a_1 A1 A2 B1 B2 C1 VGND VNB VPB VPWR X
.ends

* Black-box entry subcircuit for sky130_fd_sc_hd__xnor2_2 abstract view
.subckt sky130_fd_sc_hd__xnor2_2 A B VGND VNB VPB VPWR Y
.ends

* Black-box entry subcircuit for sky130_fd_sc_hd__o31a_1 abstract view
.subckt sky130_fd_sc_hd__o31a_1 A1 A2 A3 B1 VGND VNB VPB VPWR X
.ends

* Black-box entry subcircuit for sky130_fd_sc_hd__a21o_1 abstract view
.subckt sky130_fd_sc_hd__a21o_1 A1 A2 B1 VGND VNB VPB VPWR X
.ends

* Black-box entry subcircuit for sky130_fd_sc_hd__and3_1 abstract view
.subckt sky130_fd_sc_hd__and3_1 A B C VGND VNB VPB VPWR X
.ends

* Black-box entry subcircuit for sky130_fd_sc_hd__or2b_1 abstract view
.subckt sky130_fd_sc_hd__or2b_1 A B_N VGND VNB VPB VPWR X
.ends

* Black-box entry subcircuit for sky130_fd_sc_hd__o21ba_1 abstract view
.subckt sky130_fd_sc_hd__o21ba_1 A1 A2 B1_N VGND VNB VPB VPWR X
.ends

* Black-box entry subcircuit for sky130_fd_sc_hd__o21ai_1 abstract view
.subckt sky130_fd_sc_hd__o21ai_1 A1 A2 B1 VGND VNB VPB VPWR Y
.ends

* Black-box entry subcircuit for sky130_fd_sc_hd__o211a_1 abstract view
.subckt sky130_fd_sc_hd__o211a_1 A1 A2 B1 C1 VGND VNB VPB VPWR X
.ends

* Black-box entry subcircuit for sky130_fd_sc_hd__nor3_1 abstract view
.subckt sky130_fd_sc_hd__nor3_1 A B C VGND VNB VPB VPWR Y
.ends

* Black-box entry subcircuit for sky130_fd_sc_hd__a211o_1 abstract view
.subckt sky130_fd_sc_hd__a211o_1 A1 A2 B1 C1 VGND VNB VPB VPWR X
.ends

* Black-box entry subcircuit for sky130_fd_sc_hd__and4_1 abstract view
.subckt sky130_fd_sc_hd__and4_1 A B C D VGND VNB VPB VPWR X
.ends

* Black-box entry subcircuit for sky130_fd_sc_hd__a21oi_2 abstract view
.subckt sky130_fd_sc_hd__a21oi_2 A1 A2 B1 VGND VNB VPB VPWR Y
.ends

* Black-box entry subcircuit for sky130_fd_sc_hd__a31oi_1 abstract view
.subckt sky130_fd_sc_hd__a31oi_1 A1 A2 A3 B1 VGND VNB VPB VPWR Y
.ends

* Black-box entry subcircuit for sky130_fd_sc_hd__or3b_1 abstract view
.subckt sky130_fd_sc_hd__or3b_1 A B C_N VGND VNB VPB VPWR X
.ends

* Black-box entry subcircuit for sky130_fd_sc_hd__a21bo_1 abstract view
.subckt sky130_fd_sc_hd__a21bo_1 A1 A2 B1_N VGND VNB VPB VPWR X
.ends

* Black-box entry subcircuit for sky130_fd_sc_hd__buf_4 abstract view
.subckt sky130_fd_sc_hd__buf_4 A VGND VNB VPB VPWR X
.ends

* Black-box entry subcircuit for sky130_fd_sc_hd__xor2_1 abstract view
.subckt sky130_fd_sc_hd__xor2_1 A B VGND VNB VPB VPWR X
.ends

* Black-box entry subcircuit for sky130_fd_sc_hd__clkbuf_8 abstract view
.subckt sky130_fd_sc_hd__clkbuf_8 A VGND VNB VPB VPWR X
.ends

* Black-box entry subcircuit for sky130_fd_sc_hd__clkbuf_2 abstract view
.subckt sky130_fd_sc_hd__clkbuf_2 A VGND VNB VPB VPWR X
.ends

* Black-box entry subcircuit for sky130_fd_sc_hd__and3b_1 abstract view
.subckt sky130_fd_sc_hd__and3b_1 A_N B C VGND VNB VPB VPWR X
.ends

* Black-box entry subcircuit for sky130_fd_sc_hd__buf_1 abstract view
.subckt sky130_fd_sc_hd__buf_1 A VGND VNB VPB VPWR X
.ends

* Black-box entry subcircuit for sky130_fd_sc_hd__o22a_1 abstract view
.subckt sky130_fd_sc_hd__o22a_1 A1 A2 B1 B2 VGND VNB VPB VPWR X
.ends

* Black-box entry subcircuit for sky130_fd_sc_hd__nand3_1 abstract view
.subckt sky130_fd_sc_hd__nand3_1 A B C VGND VNB VPB VPWR Y
.ends

* Black-box entry subcircuit for sky130_fd_sc_hd__dlymetal6s2s_1 abstract view
.subckt sky130_fd_sc_hd__dlymetal6s2s_1 A VGND VNB VPB VPWR X
.ends

* Black-box entry subcircuit for sky130_fd_sc_hd__or4_1 abstract view
.subckt sky130_fd_sc_hd__or4_1 A B C D VGND VNB VPB VPWR X
.ends

* Black-box entry subcircuit for sky130_fd_sc_hd__o31a_2 abstract view
.subckt sky130_fd_sc_hd__o31a_2 A1 A2 A3 B1 VGND VNB VPB VPWR X
.ends

* Black-box entry subcircuit for sky130_fd_sc_hd__a2111o_1 abstract view
.subckt sky130_fd_sc_hd__a2111o_1 A1 A2 B1 C1 D1 VGND VNB VPB VPWR X
.ends

* Black-box entry subcircuit for sky130_fd_sc_hd__a2bb2o_1 abstract view
.subckt sky130_fd_sc_hd__a2bb2o_1 A1_N A2_N B1 B2 VGND VNB VPB VPWR X
.ends

* Black-box entry subcircuit for sky130_fd_sc_hd__a311o_2 abstract view
.subckt sky130_fd_sc_hd__a311o_2 A1 A2 A3 B1 C1 VGND VNB VPB VPWR X
.ends

* Black-box entry subcircuit for sky130_fd_sc_hd__a21oi_4 abstract view
.subckt sky130_fd_sc_hd__a21oi_4 A1 A2 B1 VGND VNB VPB VPWR Y
.ends

* Black-box entry subcircuit for sky130_fd_sc_hd__nand2_2 abstract view
.subckt sky130_fd_sc_hd__nand2_2 A B VGND VNB VPB VPWR Y
.ends

* Black-box entry subcircuit for sky130_fd_sc_hd__o21ai_4 abstract view
.subckt sky130_fd_sc_hd__o21ai_4 A1 A2 B1 VGND VNB VPB VPWR Y
.ends

* Black-box entry subcircuit for sky130_fd_sc_hd__and2b_1 abstract view
.subckt sky130_fd_sc_hd__and2b_1 A_N B VGND VNB VPB VPWR X
.ends

* Black-box entry subcircuit for sky130_fd_sc_hd__or3_1 abstract view
.subckt sky130_fd_sc_hd__or3_1 A B C VGND VNB VPB VPWR X
.ends

* Black-box entry subcircuit for sky130_fd_sc_hd__a21bo_2 abstract view
.subckt sky130_fd_sc_hd__a21bo_2 A1 A2 B1_N VGND VNB VPB VPWR X
.ends

* Black-box entry subcircuit for sky130_fd_sc_hd__a21boi_2 abstract view
.subckt sky130_fd_sc_hd__a21boi_2 A1 A2 B1_N VGND VNB VPB VPWR Y
.ends

.subckt sequential_multiplier_32x32 VGND VPWR clk done mcand[0] mcand[10] mcand[11]
+ mcand[12] mcand[13] mcand[14] mcand[15] mcand[16] mcand[17] mcand[18] mcand[19]
+ mcand[1] mcand[20] mcand[21] mcand[22] mcand[23] mcand[24] mcand[25] mcand[26] mcand[27]
+ mcand[28] mcand[29] mcand[2] mcand[30] mcand[31] mcand[3] mcand[4] mcand[5] mcand[6]
+ mcand[7] mcand[8] mcand[9] mplier[0] mplier[10] mplier[11] mplier[12] mplier[13]
+ mplier[14] mplier[15] mplier[16] mplier[17] mplier[18] mplier[19] mplier[1] mplier[20]
+ mplier[21] mplier[22] mplier[23] mplier[24] mplier[25] mplier[26] mplier[27] mplier[28]
+ mplier[29] mplier[2] mplier[30] mplier[31] mplier[3] mplier[4] mplier[5] mplier[6]
+ mplier[7] mplier[8] mplier[9] product[0] product[10] product[11] product[12] product[13]
+ product[14] product[15] product[16] product[17] product[18] product[19] product[1]
+ product[20] product[21] product[22] product[23] product[24] product[25] product[26]
+ product[27] product[28] product[29] product[2] product[30] product[31] product[32]
+ product[33] product[34] product[35] product[36] product[37] product[38] product[39]
+ product[3] product[40] product[41] product[42] product[43] product[44] product[45]
+ product[46] product[47] product[48] product[49] product[4] product[50] product[51]
+ product[52] product[53] product[54] product[55] product[56] product[57] product[58]
+ product[59] product[5] product[60] product[61] product[62] product[63] product[6]
+ product[7] product[8] product[9] st
XFILLER_0_94_77 VGND VGND VPWR VPWR sky130_fd_sc_hd__decap_6
XPHY_EDGE_ROW_6_Left_124 VGND VGND VPWR VPWR sky130_fd_sc_hd__decap_3
XFILLER_0_27_93 VGND VPWR VPWR VGND sky130_ef_sc_hd__decap_12
XFILLER_0_89_461 VGND VPWR VPWR VGND sky130_ef_sc_hd__decap_12
XFILLER_0_76_133 VGND VGND VPWR VPWR sky130_fd_sc_hd__decap_6
XTAP_TAPCELL_ROW_81_1226 VGND VPWR sky130_fd_sc_hd__tapvpwrvgnd_1
XFILLER_0_76_177 VGND VPWR VPWR VGND sky130_ef_sc_hd__decap_12
XFILLER_0_43_81 VGND VPWR VPWR VGND sky130_ef_sc_hd__decap_12
XFILLER_0_92_637 VGND VGND VPWR VPWR sky130_fd_sc_hd__decap_6
XFILLER_0_91_125 VGND VPWR VPWR VGND sky130_ef_sc_hd__decap_12
XTAP_TAPCELL_ROW_33_651 VGND VPWR sky130_fd_sc_hd__tapvpwrvgnd_1
XFILLER_0_57_380 VGND VPWR VPWR VGND sky130_ef_sc_hd__decap_12
XTAP_TAPCELL_ROW_61_982 VGND VPWR sky130_fd_sc_hd__tapvpwrvgnd_1
XFILLER_0_91_169 VGND VPWR VPWR VGND sky130_ef_sc_hd__decap_12
XFILLER_0_45_553 VGND VGND VPWR VPWR sky130_fd_sc_hd__decap_6
XFILLER_0_115_441 VGND VGND VPWR VPWR sky130_fd_sc_hd__decap_6
XFILLER_0_45_597 VGND VPWR VPWR VGND sky130_ef_sc_hd__decap_12
XFILLER_0_60_501 VGND VPWR VPWR VGND sky130_ef_sc_hd__decap_12
XFILLER_0_115_485 VGND VPWR VPWR VGND sky130_ef_sc_hd__decap_12
XFILLER_0_60_545 VGND VPWR VPWR VGND sky130_ef_sc_hd__decap_12
XTAP_TAPCELL_ROW_79_1199 VGND VPWR sky130_fd_sc_hd__tapvpwrvgnd_1
XFILLER_0_13_461 VGND VPWR VPWR VGND sky130_ef_sc_hd__decap_12
XFILLER_0_32_269 VGND VPWR VPWR VGND sky130_ef_sc_hd__decap_12
XFILLER_0_60_589 VGND VPWR VPWR VGND sky130_ef_sc_hd__decap_12
XFILLER_0_7_81 VGND VPWR VPWR VGND sky130_ef_sc_hd__decap_12
XTAP_TAPCELL_ROW_92_1355 VGND VPWR sky130_fd_sc_hd__tapvpwrvgnd_1
XTAP_TAPCELL_ROW_5_310 VGND VPWR sky130_fd_sc_hd__tapvpwrvgnd_1
XFILLER_0_99_225 VGND VPWR VPWR VGND sky130_ef_sc_hd__decap_12
X_501_ _135_ _136_ VGND VGND VPWR VPWR _137_ sky130_fd_sc_hd__nand2_1
XFILLER_0_68_601 VGND VPWR VPWR VGND sky130_ef_sc_hd__decap_12
XFILLER_0_68_645 VGND VPWR VPWR VGND sky130_ef_sc_hd__decap_12
XFILLER_0_67_111 VGND VGND VPWR VPWR sky130_fd_sc_hd__fill_1
X_432_ estado_act\[1\] estado_act\[0\] VGND VGND VPWR VPWR _075_ sky130_fd_sc_hd__nor2_2
XFILLER_0_83_615 VGND VGND VPWR VPWR sky130_fd_sc_hd__fill_1
XFILLER_0_55_317 VGND VPWR VPWR VGND sky130_ef_sc_hd__decap_12
XFILLER_0_95_497 VGND VGND VPWR VPWR sky130_fd_sc_hd__decap_6
XTAP_TAPCELL_ROW_101_1462 VGND VPWR sky130_fd_sc_hd__tapvpwrvgnd_1
XFILLER_0_36_531 VGND VGND VPWR VPWR sky130_fd_sc_hd__fill_1
XFILLER_0_3_609 VGND VGND VPWR VPWR sky130_fd_sc_hd__decap_6
XTAP_TAPCELL_ROW_11_389 VGND VPWR sky130_fd_sc_hd__tapvpwrvgnd_1
XFILLER_0_23_225 VGND VPWR VPWR VGND sky130_ef_sc_hd__decap_12
XFILLER_0_48_15 VGND VPWR VPWR VGND sky130_ef_sc_hd__decap_12
XPHY_EDGE_ROW_79_Left_197 VGND VGND VPWR VPWR sky130_fd_sc_hd__decap_3
XFILLER_0_3_39 VGND VPWR VPWR VGND sky130_ef_sc_hd__decap_12
XTAP_TAPCELL_ROW_19_478 VGND VPWR sky130_fd_sc_hd__tapvpwrvgnd_1
XFILLER_0_58_133 VGND VGND VPWR VPWR sky130_fd_sc_hd__decap_6
XFILLER_0_86_475 VGND VGND VPWR VPWR sky130_fd_sc_hd__fill_1
XFILLER_0_104_53 VGND VPWR VPWR VGND sky130_ef_sc_hd__decap_12
XFILLER_0_74_637 VGND VGND VPWR VPWR sky130_fd_sc_hd__decap_6
XFILLER_0_73_125 VGND VPWR VPWR VGND sky130_ef_sc_hd__decap_12
XFILLER_0_13_51 VGND VGND VPWR VPWR sky130_fd_sc_hd__decap_4
XFILLER_0_58_177 VGND VPWR VPWR VGND sky130_ef_sc_hd__decap_12
XFILLER_0_104_97 VGND VPWR VPWR VGND sky130_ef_sc_hd__decap_12
XFILLER_0_73_169 VGND VGND VPWR VPWR sky130_fd_sc_hd__decap_8
XFILLER_0_27_553 VGND VGND VPWR VPWR sky130_fd_sc_hd__decap_6
XTAP_TAPCELL_ROW_30_610 VGND VPWR sky130_fd_sc_hd__tapvpwrvgnd_1
XFILLER_0_39_391 VGND VGND VPWR VPWR sky130_fd_sc_hd__fill_1
XFILLER_0_82_681 VGND VPWR VPWR VGND sky130_ef_sc_hd__decap_12
XFILLER_0_6_469 VGND VGND VPWR VPWR sky130_fd_sc_hd__decap_6
XFILLER_0_27_597 VGND VPWR VPWR VGND sky130_ef_sc_hd__decap_12
XFILLER_0_42_523 VGND VGND VPWR VPWR sky130_fd_sc_hd__fill_2
XFILLER_0_89_55 VGND VGND VPWR VPWR sky130_fd_sc_hd__fill_1
XFILLER_0_112_433 VGND VPWR VPWR VGND sky130_ef_sc_hd__decap_12
XFILLER_0_42_589 VGND VPWR VPWR VGND sky130_ef_sc_hd__decap_12
XFILLER_0_112_477 VGND VPWR VPWR VGND sky130_ef_sc_hd__decap_12
XFILLER_0_2_697 VGND VGND VPWR VPWR sky130_fd_sc_hd__fill_1
XFILLER_0_10_475 VGND VGND VPWR VPWR sky130_fd_sc_hd__fill_1
XTAP_TAPCELL_ROW_38_710 VGND VPWR sky130_fd_sc_hd__tapvpwrvgnd_1
XFILLER_0_77_420 VGND VPWR VPWR VGND sky130_ef_sc_hd__decap_12
XFILLER_0_49_111 VGND VGND VPWR VPWR sky130_fd_sc_hd__fill_1
XFILLER_0_65_615 VGND VGND VPWR VPWR sky130_fd_sc_hd__fill_1
XFILLER_0_77_497 VGND VGND VPWR VPWR sky130_fd_sc_hd__decap_6
XFILLER_0_49_199 VGND VPWR VPWR VGND sky130_ef_sc_hd__decap_12
XFILLER_0_107_205 VGND VPWR VPWR VGND sky130_ef_sc_hd__decap_12
XFILLER_0_18_531 VGND VGND VPWR VPWR sky130_fd_sc_hd__fill_1
XFILLER_0_52_309 VGND VGND VPWR VPWR sky130_fd_sc_hd__decap_4
XFILLER_0_107_249 VGND VPWR VPWR VGND sky130_ef_sc_hd__decap_12
XFILLER_0_92_489 VGND VPWR VPWR VGND sky130_ef_sc_hd__decap_12
XFILLER_0_115_293 VGND VPWR VPWR VGND sky130_ef_sc_hd__decap_12
XFILLER_0_18_29 VGND VPWR VPWR VGND sky130_ef_sc_hd__decap_12
XFILLER_0_87_217 VGND VGND VPWR VPWR sky130_fd_sc_hd__decap_6
XFILLER_0_68_475 VGND VGND VPWR VPWR sky130_fd_sc_hd__fill_1
XTAP_TAPCELL_ROW_16_448 VGND VPWR sky130_fd_sc_hd__tapvpwrvgnd_1
XFILLER_0_28_317 VGND VPWR VPWR VGND sky130_ef_sc_hd__decap_12
XTAP_TAPCELL_ROW_44_779 VGND VPWR sky130_fd_sc_hd__tapvpwrvgnd_1
XFILLER_0_55_125 VGND VPWR VPWR VGND sky130_ef_sc_hd__decap_12
XFILLER_0_56_637 VGND VGND VPWR VPWR sky130_fd_sc_hd__decap_6
XFILLER_0_50_27 VGND VGND VPWR VPWR sky130_fd_sc_hd__fill_1
XFILLER_0_71_629 VGND VPWR VPWR VGND sky130_ef_sc_hd__decap_12
XFILLER_0_24_501 VGND VPWR VPWR VGND sky130_ef_sc_hd__decap_12
XFILLER_0_55_169 VGND VPWR VPWR VGND sky130_ef_sc_hd__decap_12
XFILLER_0_64_681 VGND VPWR VPWR VGND sky130_ef_sc_hd__decap_12
XFILLER_0_70_139 VGND VGND VPWR VPWR sky130_fd_sc_hd__fill_1
XFILLER_0_3_417 VGND VPWR VPWR VGND sky130_ef_sc_hd__decap_12
XFILLER_0_24_545 VGND VPWR VPWR VGND sky130_ef_sc_hd__decap_12
XFILLER_0_51_331 VGND VGND VPWR VPWR sky130_fd_sc_hd__decap_4
XFILLER_0_24_589 VGND VPWR VPWR VGND sky130_ef_sc_hd__decap_12
XTAP_TAPCELL_ROW_114_1620 VGND VPWR sky130_fd_sc_hd__tapvpwrvgnd_1
XFILLER_0_11_217 VGND VGND VPWR VPWR sky130_fd_sc_hd__decap_6
XFILLER_0_59_69 VGND VPWR VPWR VGND sky130_ef_sc_hd__decap_12
XPHY_EDGE_ROW_87_Left_205 VGND VGND VPWR VPWR sky130_fd_sc_hd__decap_3
XFILLER_0_75_57 VGND VPWR VPWR VGND sky130_ef_sc_hd__decap_12
XPHY_EDGE_ROW_96_Left_214 VGND VGND VPWR VPWR sky130_fd_sc_hd__decap_3
XFILLER_0_47_615 VGND VGND VPWR VPWR sky130_fd_sc_hd__fill_1
XTAP_TAPCELL_ROW_65_1029 VGND VPWR sky130_fd_sc_hd__tapvpwrvgnd_1
XFILLER_0_74_401 VGND VPWR VPWR VGND sky130_ef_sc_hd__decap_12
XFILLER_0_24_83 VGND VGND VPWR VPWR sky130_fd_sc_hd__fill_1
XFILLER_0_117_503 VGND VGND VPWR VPWR sky130_fd_sc_hd__fill_1
XFILLER_0_74_445 VGND VPWR VPWR VGND sky130_ef_sc_hd__decap_12
XFILLER_0_117_569 VGND VGND VPWR VPWR sky130_fd_sc_hd__fill_1
XFILLER_0_117_547 VGND VGND VPWR VPWR sky130_fd_sc_hd__fill_2
XFILLER_0_74_489 VGND VPWR VPWR VGND sky130_ef_sc_hd__decap_12
XFILLER_0_6_233 VGND VPWR VPWR VGND sky130_ef_sc_hd__decap_12
XFILLER_0_27_372 VGND VGND VPWR VPWR sky130_fd_sc_hd__decap_4
XFILLER_0_34_309 VGND VPWR VPWR VGND sky130_ef_sc_hd__decap_12
XFILLER_0_6_277 VGND VPWR VPWR VGND sky130_ef_sc_hd__decap_12
XFILLER_0_71_3 VGND VPWR VPWR VGND sky130_ef_sc_hd__decap_12
XTAP_TAPCELL_ROW_76_1169 VGND VPWR sky130_fd_sc_hd__tapvpwrvgnd_1
XFILLER_0_97_559 VGND VGND VPWR VPWR sky130_fd_sc_hd__fill_1
XTAP_TAPCELL_ROW_87_1298 VGND VPWR sky130_fd_sc_hd__tapvpwrvgnd_1
XFILLER_0_84_209 VGND VPWR VPWR VGND sky130_ef_sc_hd__decap_12
XFILLER_0_38_637 VGND VGND VPWR VPWR sky130_fd_sc_hd__decap_6
XFILLER_0_108_525 VGND VGND VPWR VPWR sky130_fd_sc_hd__decap_6
XTAP_TAPCELL_ROW_13_407 VGND VPWR sky130_fd_sc_hd__tapvpwrvgnd_1
XFILLER_0_37_125 VGND VPWR VPWR VGND sky130_ef_sc_hd__decap_12
XTAP_TAPCELL_ROW_41_749 VGND VPWR sky130_fd_sc_hd__tapvpwrvgnd_1
XFILLER_0_92_253 VGND VPWR VPWR VGND sky130_ef_sc_hd__decap_12
XFILLER_0_18_350 VGND VPWR VPWR VGND sky130_ef_sc_hd__decap_12
XFILLER_0_37_169 VGND VPWR VPWR VGND sky130_ef_sc_hd__decap_12
XFILLER_0_53_629 VGND VPWR VPWR VGND sky130_ef_sc_hd__decap_12
XFILLER_0_108_569 VGND VPWR VPWR VGND sky130_ef_sc_hd__decap_12
XFILLER_0_46_681 VGND VPWR VPWR VGND sky130_ef_sc_hd__decap_12
XFILLER_0_52_139 VGND VGND VPWR VPWR sky130_fd_sc_hd__fill_1
XFILLER_0_61_673 VGND VPWR VPWR VGND sky130_ef_sc_hd__decap_12
XFILLER_0_21_559 VGND VGND VPWR VPWR sky130_fd_sc_hd__fill_1
XFILLER_0_29_39 VGND VPWR VPWR VGND sky130_ef_sc_hd__decap_12
X_895_ clknet_3_0__leaf_clk _036_ VGND VGND VPWR VPWR net78 sky130_fd_sc_hd__dfxtp_2
XFILLER_0_45_27 VGND VPWR VPWR VGND sky130_ef_sc_hd__decap_12
XTAP_TAPCELL_ROW_49_838 VGND VPWR sky130_fd_sc_hd__tapvpwrvgnd_1
XFILLER_0_61_15 VGND VPWR VPWR VGND sky130_ef_sc_hd__decap_12
XFILLER_0_96_581 VGND VGND VPWR VPWR sky130_fd_sc_hd__decap_6
XFILLER_0_29_615 VGND VGND VPWR VPWR sky130_fd_sc_hd__fill_1
XFILLER_0_56_401 VGND VPWR VPWR VGND sky130_ef_sc_hd__decap_12
XFILLER_0_56_445 VGND VPWR VPWR VGND sky130_ef_sc_hd__decap_12
XFILLER_0_16_309 VGND VPWR VPWR VGND sky130_ef_sc_hd__decap_12
XFILLER_0_56_489 VGND VPWR VPWR VGND sky130_ef_sc_hd__decap_12
XPHY_EDGE_ROW_104_Right_104 VGND VGND VPWR VPWR sky130_fd_sc_hd__decap_3
XFILLER_0_9_27 VGND VPWR VPWR VGND sky130_ef_sc_hd__decap_12
XFILLER_0_101_43 VGND VPWR VPWR VGND sky130_ef_sc_hd__decap_12
XFILLER_0_3_225 VGND VPWR VPWR VGND sky130_ef_sc_hd__decap_12
XFILLER_0_10_41 VGND VPWR VPWR VGND sky130_ef_sc_hd__decap_12
XFILLER_0_51_161 VGND VGND VPWR VPWR sky130_fd_sc_hd__decap_6
XFILLER_0_10_85 VGND VPWR VPWR VGND sky130_ef_sc_hd__decap_12
XFILLER_0_20_581 VGND VGND VPWR VPWR sky130_fd_sc_hd__decap_6
XFILLER_0_79_559 VGND VGND VPWR VPWR sky130_fd_sc_hd__fill_1
XFILLER_0_35_93 VGND VPWR VPWR VGND sky130_ef_sc_hd__decap_12
XFILLER_0_47_412 VGND VGND VPWR VPWR sky130_fd_sc_hd__fill_2
XFILLER_0_59_272 VGND VGND VPWR VPWR sky130_fd_sc_hd__decap_8
XFILLER_0_19_125 VGND VPWR VPWR VGND sky130_ef_sc_hd__decap_12
XFILLER_0_47_445 VGND VGND VPWR VPWR sky130_fd_sc_hd__decap_3
XFILLER_0_74_253 VGND VPWR VPWR VGND sky130_ef_sc_hd__decap_12
XFILLER_0_19_169 VGND VPWR VPWR VGND sky130_ef_sc_hd__decap_12
XFILLER_0_35_629 VGND VPWR VPWR VGND sky130_ef_sc_hd__decap_12
XFILLER_0_51_81 VGND VPWR VPWR VGND sky130_ef_sc_hd__decap_12
XFILLER_0_105_517 VGND VPWR VPWR VGND sky130_ef_sc_hd__decap_12
XFILLER_0_7_553 VGND VGND VPWR VPWR sky130_fd_sc_hd__decap_6
XFILLER_0_28_681 VGND VPWR VPWR VGND sky130_ef_sc_hd__decap_12
XFILLER_0_34_139 VGND VGND VPWR VPWR sky130_fd_sc_hd__fill_1
XFILLER_0_7_597 VGND VPWR VPWR VGND sky130_ef_sc_hd__decap_12
XFILLER_0_30_301 VGND VGND VPWR VPWR sky130_fd_sc_hd__decap_6
XFILLER_0_43_673 VGND VPWR VPWR VGND sky130_ef_sc_hd__decap_12
XFILLER_0_113_561 VGND VPWR VPWR VGND sky130_ef_sc_hd__decap_12
XFILLER_0_100_233 VGND VPWR VPWR VGND sky130_ef_sc_hd__decap_12
XFILLER_0_100_299 VGND VGND VPWR VPWR sky130_fd_sc_hd__decap_8
XTAP_TAPCELL_ROW_89_1327 VGND VPWR sky130_fd_sc_hd__tapvpwrvgnd_1
XTAP_TAPCELL_ROW_89_1316 VGND VPWR sky130_fd_sc_hd__tapvpwrvgnd_1
X_680_ _295_ _296_ _297_ VGND VGND VPWR VPWR _298_ sky130_fd_sc_hd__a21oi_1
XFILLER_0_97_323 VGND VPWR VPWR VGND sky130_ef_sc_hd__decap_12
XTAP_TAPCELL_ROW_46_808 VGND VPWR sky130_fd_sc_hd__tapvpwrvgnd_1
XFILLER_0_85_529 VGND VPWR VPWR VGND sky130_ef_sc_hd__decap_12
XFILLER_0_78_581 VGND VGND VPWR VPWR sky130_fd_sc_hd__decap_6
XFILLER_0_38_412 VGND VGND VPWR VPWR sky130_fd_sc_hd__decap_8
XTAP_TAPCELL_ROW_26_565 VGND VPWR sky130_fd_sc_hd__tapvpwrvgnd_1
XFILLER_0_38_445 VGND VGND VPWR VPWR sky130_fd_sc_hd__fill_2
XTAP_TAPCELL_ROW_54_896 VGND VPWR sky130_fd_sc_hd__tapvpwrvgnd_1
XFILLER_0_108_333 VGND VPWR VPWR VGND sky130_ef_sc_hd__decap_12
XFILLER_0_93_573 VGND VPWR VPWR VGND sky130_ef_sc_hd__decap_12
XFILLER_0_38_489 VGND VPWR VPWR VGND sky130_ef_sc_hd__decap_12
XFILLER_0_108_377 VGND VPWR VPWR VGND sky130_ef_sc_hd__decap_12
XFILLER_0_80_245 VGND VGND VPWR VPWR sky130_fd_sc_hd__decap_6
XFILLER_0_80_289 VGND VPWR VPWR VGND sky130_ef_sc_hd__decap_12
XFILLER_0_33_161 VGND VGND VPWR VPWR sky130_fd_sc_hd__decap_6
XFILLER_0_40_109 VGND VPWR VPWR VGND sky130_ef_sc_hd__decap_12
XFILLER_0_21_378 VGND VPWR VPWR VGND sky130_ef_sc_hd__decap_12
XFILLER_0_56_15 VGND VPWR VPWR VGND sky130_ef_sc_hd__decap_12
X_878_ clknet_3_7__leaf_clk _019_ VGND VGND VPWR VPWR net110 sky130_fd_sc_hd__dfxtp_4
XTAP_TAPCELL_ROW_109_1563 VGND VPWR sky130_fd_sc_hd__tapvpwrvgnd_1
XFILLER_0_48_209 VGND VGND VPWR VPWR sky130_fd_sc_hd__decap_8
XFILLER_0_88_389 VGND VPWR VPWR VGND sky130_ef_sc_hd__decap_12
XFILLER_0_17_629 VGND VPWR VPWR VGND sky130_ef_sc_hd__decap_12
XFILLER_0_56_253 VGND VPWR VPWR VGND sky130_ef_sc_hd__decap_12
XFILLER_0_112_53 VGND VPWR VPWR VGND sky130_ef_sc_hd__decap_12
XFILLER_0_71_223 VGND VGND VPWR VPWR sky130_fd_sc_hd__fill_1
XFILLER_0_16_139 VGND VGND VPWR VPWR sky130_fd_sc_hd__fill_1
XFILLER_0_4_501 VGND VPWR VPWR VGND sky130_ef_sc_hd__decap_12
XFILLER_0_21_51 VGND VGND VPWR VPWR sky130_fd_sc_hd__decap_4
XFILLER_0_112_97 VGND VPWR VPWR VGND sky130_ef_sc_hd__decap_12
XFILLER_0_12_301 VGND VGND VPWR VPWR sky130_fd_sc_hd__decap_6
XFILLER_0_4_545 VGND VPWR VPWR VGND sky130_ef_sc_hd__decap_12
XFILLER_0_25_673 VGND VPWR VPWR VGND sky130_ef_sc_hd__decap_12
XFILLER_0_97_33 VGND VPWR VPWR VGND sky130_ef_sc_hd__decap_12
XFILLER_0_12_345 VGND VPWR VPWR VGND sky130_ef_sc_hd__decap_12
XFILLER_0_4_589 VGND VPWR VPWR VGND sky130_ef_sc_hd__decap_12
XFILLER_0_40_643 VGND VGND VPWR VPWR sky130_fd_sc_hd__fill_1
XFILLER_0_110_531 VGND VGND VPWR VPWR sky130_fd_sc_hd__fill_1
XTAP_TAPCELL_ROW_73_1128 VGND VPWR sky130_fd_sc_hd__tapvpwrvgnd_1
XFILLER_0_12_389 VGND VPWR VPWR VGND sky130_ef_sc_hd__decap_12
XFILLER_0_34_3 VGND VPWR VPWR VGND sky130_ef_sc_hd__decap_12
XFILLER_0_98_109 VGND VPWR VPWR VGND sky130_ef_sc_hd__decap_12
XTAP_TAPCELL_ROW_84_1257 VGND VPWR sky130_fd_sc_hd__tapvpwrvgnd_1
XFILLER_0_67_529 VGND VPWR VPWR VGND sky130_ef_sc_hd__decap_12
XFILLER_0_47_220 VGND VGND VPWR VPWR sky130_fd_sc_hd__decap_4
XFILLER_0_47_231 VGND VPWR VPWR VGND sky130_ef_sc_hd__decap_12
XFILLER_0_75_573 VGND VPWR VPWR VGND sky130_ef_sc_hd__decap_12
XTAP_TAPCELL_ROW_23_524 VGND VPWR sky130_fd_sc_hd__tapvpwrvgnd_1
XTAP_TAPCELL_ROW_23_535 VGND VPWR sky130_fd_sc_hd__tapvpwrvgnd_1
XFILLER_0_117_141 VGND VGND VPWR VPWR sky130_fd_sc_hd__decap_8
XTAP_TAPCELL_ROW_51_866 VGND VPWR sky130_fd_sc_hd__tapvpwrvgnd_1
XFILLER_0_7_361 VGND VPWR VPWR VGND sky130_ef_sc_hd__decap_12
XFILLER_0_62_245 VGND VGND VPWR VPWR sky130_fd_sc_hd__decap_6
XFILLER_0_90_587 VGND VGND VPWR VPWR sky130_fd_sc_hd__fill_1
XFILLER_0_15_161 VGND VGND VPWR VPWR sky130_fd_sc_hd__decap_6
XFILLER_0_22_109 VGND VPWR VPWR VGND sky130_ef_sc_hd__decap_12
XFILLER_0_50_418 VGND VGND VPWR VPWR sky130_fd_sc_hd__fill_2
XFILLER_0_62_289 VGND VGND VPWR VPWR sky130_fd_sc_hd__decap_4
XFILLER_0_113_391 VGND VGND VPWR VPWR sky130_fd_sc_hd__fill_1
XTAP_TAPCELL_ROW_95_1397 VGND VPWR sky130_fd_sc_hd__tapvpwrvgnd_1
XFILLER_0_30_153 VGND VPWR VPWR VGND sky130_ef_sc_hd__decap_12
XFILLER_0_31_665 VGND VGND VPWR VPWR sky130_fd_sc_hd__decap_6
XFILLER_0_101_553 VGND VGND VPWR VPWR sky130_fd_sc_hd__decap_6
XFILLER_0_30_197 VGND VPWR VPWR VGND sky130_ef_sc_hd__decap_12
XFILLER_0_101_597 VGND VPWR VPWR VGND sky130_ef_sc_hd__decap_12
X_801_ net144 _390_ _396_ VGND VGND VPWR VPWR _047_ sky130_fd_sc_hd__o21a_1
Xhold30 net127 VGND VGND VPWR VPWR net160 sky130_fd_sc_hd__dlygate4sd3_1
XFILLER_0_26_29 VGND VPWR VPWR VGND sky130_ef_sc_hd__decap_12
X_732_ _177_ _344_ VGND VGND VPWR VPWR _345_ sky130_fd_sc_hd__and2_1
XFILLER_0_98_643 VGND VGND VPWR VPWR sky130_fd_sc_hd__fill_1
X_663_ _095_ _282_ VGND VGND VPWR VPWR _283_ sky130_fd_sc_hd__nor2_1
XTAP_TAPCELL_ROW_59_966 VGND VPWR sky130_fd_sc_hd__tapvpwrvgnd_1
XTAP_TAPCELL_ROW_3_293 VGND VPWR sky130_fd_sc_hd__tapvpwrvgnd_1
XFILLER_0_58_507 VGND VGND VPWR VPWR sky130_fd_sc_hd__fill_2
X_594_ _177_ _220_ VGND VGND VPWR VPWR _221_ sky130_fd_sc_hd__and2_1
XFILLER_0_58_529 VGND VGND VPWR VPWR sky130_fd_sc_hd__decap_3
XFILLER_0_85_359 VGND VGND VPWR VPWR sky130_fd_sc_hd__fill_1
XFILLER_0_85_337 VGND VPWR VPWR VGND sky130_ef_sc_hd__decap_12
XFILLER_0_38_253 VGND VPWR VPWR VGND sky130_ef_sc_hd__decap_12
XFILLER_0_109_653 VGND VPWR VPWR VGND sky130_ef_sc_hd__decap_12
XFILLER_0_108_141 VGND VPWR VPWR VGND sky130_ef_sc_hd__decap_12
XPHY_EDGE_ROW_51_Left_169 VGND VGND VPWR VPWR sky130_fd_sc_hd__decap_3
XFILLER_0_53_223 VGND VGND VPWR VPWR sky130_fd_sc_hd__fill_1
XFILLER_0_53_256 VGND VPWR VPWR VGND sky130_ef_sc_hd__decap_12
XFILLER_0_101_7 VGND VPWR VPWR VGND sky130_ef_sc_hd__decap_12
XFILLER_0_53_278 VGND VGND VPWR VPWR sky130_fd_sc_hd__fill_2
XFILLER_0_111_317 VGND VPWR VPWR VGND sky130_ef_sc_hd__decap_12
XANTENNA_5 net48 VGND VGND VPWR VPWR sky130_fd_sc_hd__diode_2
XFILLER_0_22_643 VGND VGND VPWR VPWR sky130_fd_sc_hd__fill_1
XFILLER_0_1_559 VGND VGND VPWR VPWR sky130_fd_sc_hd__fill_1
XFILLER_0_67_69 VGND VPWR VPWR VGND sky130_ef_sc_hd__decap_12
XPHY_EDGE_ROW_60_Left_178 VGND VGND VPWR VPWR sky130_fd_sc_hd__decap_3
XFILLER_0_83_57 VGND VPWR VPWR VGND sky130_ef_sc_hd__decap_12
XFILLER_0_89_665 VGND VGND VPWR VPWR sky130_fd_sc_hd__decap_6
XFILLER_0_88_153 VGND VPWR VPWR VGND sky130_ef_sc_hd__decap_12
XFILLER_0_76_304 VGND VGND VPWR VPWR sky130_fd_sc_hd__decap_4
XFILLER_0_88_197 VGND VGND VPWR VPWR sky130_fd_sc_hd__decap_6
XFILLER_0_9_615 VGND VGND VPWR VPWR sky130_fd_sc_hd__fill_1
XFILLER_0_57_573 VGND VPWR VPWR VGND sky130_ef_sc_hd__decap_12
XFILLER_0_32_83 VGND VGND VPWR VPWR sky130_fd_sc_hd__fill_1
XFILLER_0_44_245 VGND VGND VPWR VPWR sky130_fd_sc_hd__decap_6
XFILLER_0_114_133 VGND VGND VPWR VPWR sky130_fd_sc_hd__decap_6
XFILLER_0_72_587 VGND VGND VPWR VPWR sky130_fd_sc_hd__fill_1
XFILLER_0_32_407 VGND VPWR VPWR VGND sky130_ef_sc_hd__decap_12
XFILLER_0_44_289 VGND VPWR VPWR VGND sky130_ef_sc_hd__decap_12
XFILLER_0_114_177 VGND VPWR VPWR VGND sky130_ef_sc_hd__decap_12
XFILLER_0_13_665 VGND VGND VPWR VPWR sky130_fd_sc_hd__decap_6
XFILLER_0_12_153 VGND VPWR VPWR VGND sky130_ef_sc_hd__decap_12
XFILLER_0_12_197 VGND VPWR VPWR VGND sky130_ef_sc_hd__decap_12
XTAP_TAPCELL_ROW_56_925 VGND VPWR sky130_fd_sc_hd__tapvpwrvgnd_1
XTAP_TAPCELL_ROW_0_241 VGND VPWR sky130_fd_sc_hd__tapvpwrvgnd_1
XTAP_TAPCELL_ROW_0_252 VGND VPWR sky130_fd_sc_hd__tapvpwrvgnd_1
XFILLER_0_67_337 VGND VPWR VPWR VGND sky130_ef_sc_hd__decap_12
XTAP_TAPCELL_ROW_36_682 VGND VPWR sky130_fd_sc_hd__tapvpwrvgnd_1
XFILLER_0_94_189 VGND VGND VPWR VPWR sky130_fd_sc_hd__decap_6
XFILLER_0_35_223 VGND VGND VPWR VPWR sky130_fd_sc_hd__fill_1
XFILLER_0_106_601 VGND VPWR VPWR VGND sky130_ef_sc_hd__decap_12
XTAP_TAPCELL_ROW_97_1415 VGND VPWR sky130_fd_sc_hd__tapvpwrvgnd_1
XFILLER_0_8_681 VGND VPWR VPWR VGND sky130_ef_sc_hd__decap_12
XFILLER_0_106_645 VGND VPWR VPWR VGND sky130_ef_sc_hd__decap_12
XFILLER_0_105_111 VGND VGND VPWR VPWR sky130_fd_sc_hd__fill_1
XFILLER_0_31_495 VGND VGND VPWR VPWR sky130_fd_sc_hd__decap_8
XFILLER_0_101_361 VGND VGND VPWR VPWR sky130_fd_sc_hd__decap_6