*SPEF "ieee 1481-1999"
*DESIGN "combinational_multiplier_16x16"
*DATE "11:11:11 Fri 11 11, 1111"
*VENDOR "OpenRCX"
*PROGRAM "Parallel Extraction"
*VERSION "1.0"
*DESIGN_FLOW "NAME_SCOPE LOCAL" "PIN_CAP NONE"
*DIVIDER /
*DELIMITER :
*BUS_DELIMITER []
*T_UNIT 1 NS
*C_UNIT 1 PF
*R_UNIT 1 OHM
*L_UNIT 1 HENRY

*NAME_MAP
*3 mcand[0]
*4 mcand[10]
*5 mcand[11]
*6 mcand[12]
*7 mcand[13]
*8 mcand[14]
*9 mcand[15]
*10 mcand[1]
*11 mcand[2]
*12 mcand[3]
*13 mcand[4]
*14 mcand[5]
*15 mcand[6]
*16 mcand[7]
*17 mcand[8]
*18 mcand[9]
*19 mplier[0]
*20 mplier[10]
*21 mplier[11]
*22 mplier[12]
*23 mplier[13]
*24 mplier[14]
*25 mplier[15]
*26 mplier[1]
*27 mplier[2]
*28 mplier[3]
*29 mplier[4]
*30 mplier[5]
*31 mplier[6]
*32 mplier[7]
*33 mplier[8]
*34 mplier[9]
*35 product[0]
*36 product[10]
*37 product[11]
*38 product[12]
*39 product[13]
*40 product[14]
*41 product[15]
*42 product[16]
*43 product[17]
*44 product[18]
*45 product[19]
*46 product[1]
*47 product[20]
*48 product[21]
*49 product[22]
*50 product[23]
*51 product[24]
*52 product[25]
*53 product[26]
*54 product[27]
*55 product[28]
*56 product[29]
*57 product[2]
*58 product[30]
*59 product[31]
*60 product[3]
*61 product[4]
*62 product[5]
*63 product[6]
*64 product[7]
*65 product[8]
*66 product[9]
*67 _0000_
*68 _0001_
*69 _0002_
*70 _0003_
*71 _0004_
*72 _0005_
*73 _0006_
*74 _0007_
*75 _0008_
*76 _0009_
*77 _0010_
*78 _0011_
*79 _0012_
*80 _0013_
*81 _0014_
*82 _0015_
*83 _0016_
*84 _0017_
*85 _0018_
*86 _0019_
*87 _0020_
*88 _0021_
*89 _0022_
*90 _0023_
*91 _0024_
*92 _0025_
*93 _0026_
*94 _0027_
*95 _0028_
*96 _0029_
*97 _0030_
*98 _0031_
*99 _0032_
*100 _0033_
*101 _0034_
*102 _0035_
*103 _0036_
*104 _0037_
*105 _0038_
*106 _0039_
*107 _0040_
*108 _0041_
*109 _0042_
*110 _0043_
*111 _0044_
*112 _0045_
*113 _0046_
*114 _0047_
*115 _0048_
*116 _0049_
*117 _0050_
*118 _0051_
*119 _0052_
*120 _0053_
*121 _0054_
*122 _0055_
*123 _0056_
*124 _0057_
*125 _0058_
*126 _0059_
*127 _0060_
*128 _0061_
*129 _0062_
*130 _0063_
*131 _0064_
*132 _0065_
*133 _0066_
*134 _0067_
*135 _0068_
*136 _0069_
*137 _0070_
*138 _0071_
*139 _0072_
*140 _0073_
*141 _0074_
*142 _0075_
*143 _0076_
*144 _0077_
*145 _0078_
*146 _0079_
*147 _0080_
*148 _0081_
*149 _0082_
*150 _0083_
*151 _0084_
*152 _0085_
*153 _0086_
*154 _0087_
*155 _0088_
*156 _0089_
*157 _0090_
*158 _0091_
*159 _0092_
*160 _0093_
*161 _0094_
*162 _0095_
*163 _0096_
*164 _0097_
*165 _0098_
*166 _0099_
*167 _0100_
*168 _0101_
*169 _0102_
*170 _0103_
*171 _0104_
*172 _0105_
*173 _0106_
*174 _0107_
*175 _0108_
*176 _0109_
*177 _0110_
*178 _0111_
*179 _0112_
*180 _0113_
*181 _0114_
*182 _0115_
*183 _0116_
*184 _0117_
*185 _0118_
*186 _0119_
*187 _0120_
*188 _0121_
*189 _0122_
*190 _0123_
*191 _0124_
*192 _0125_
*193 _0126_
*194 _0127_
*195 _0128_
*196 _0129_
*197 _0130_
*198 _0131_
*199 _0132_
*200 _0133_
*201 _0134_
*202 _0135_
*203 _0136_
*204 _0137_
*205 _0138_
*206 _0139_
*207 _0140_
*208 _0141_
*209 _0142_
*210 _0143_
*211 _0144_
*212 _0145_
*213 _0146_
*214 _0147_
*215 _0148_
*216 _0149_
*217 _0150_
*218 _0151_
*219 _0152_
*220 _0153_
*221 _0154_
*222 _0155_
*223 _0156_
*224 _0157_
*225 _0158_
*226 _0159_
*227 _0160_
*228 _0161_
*229 _0162_
*230 _0163_
*231 _0164_
*232 _0165_
*233 _0166_
*234 _0167_
*235 _0168_
*236 _0169_
*237 _0170_
*238 _0171_
*239 _0172_
*240 _0173_
*241 _0174_
*242 _0175_
*243 _0176_
*244 _0177_
*245 _0178_
*246 _0179_
*247 _0180_
*248 _0181_
*249 _0182_
*250 _0183_
*251 _0184_
*252 _0185_
*253 _0186_
*254 _0187_
*255 _0188_
*256 _0189_
*257 _0190_
*258 _0191_
*259 _0192_
*260 _0193_
*261 _0194_
*262 _0195_
*263 _0196_
*264 _0197_
*265 _0198_
*266 _0199_
*267 _0200_
*268 _0201_
*269 _0202_
*270 _0203_
*271 _0204_
*272 _0205_
*273 _0206_
*274 _0207_
*275 _0208_
*276 _0209_
*277 _0210_
*278 _0211_
*279 _0212_
*280 _0213_
*281 _0214_
*282 _0215_
*283 _0216_
*284 _0217_
*285 _0218_
*286 _0219_
*287 _0220_
*288 _0221_
*289 _0222_
*290 _0223_
*291 _0224_
*292 _0225_
*293 _0226_
*294 _0227_
*295 _0228_
*296 _0229_
*297 _0230_
*298 _0231_
*299 _0232_
*300 _0233_
*301 _0234_
*302 _0235_
*303 _0236_
*304 _0237_
*305 _0238_
*306 _0239_
*307 _0240_
*308 _0241_
*309 _0242_
*310 _0243_
*311 _0244_
*312 _0245_
*313 _0246_
*314 _0247_
*315 _0248_
*316 _0249_
*317 _0250_
*318 _0251_
*319 _0252_
*320 _0253_
*321 _0254_
*322 _0255_
*323 _0256_
*324 _0257_
*325 _0258_
*326 _0259_
*327 _0260_
*328 _0261_
*329 _0262_
*330 _0263_
*331 _0264_
*332 _0265_
*333 _0266_
*334 _0267_
*335 _0268_
*336 _0269_
*337 _0270_
*338 _0271_
*339 _0272_
*340 _0273_
*341 _0274_
*342 _0275_
*343 _0276_
*344 _0277_
*345 _0278_
*346 _0279_
*347 _0280_
*348 _0281_
*349 _0282_
*350 _0283_
*351 _0284_
*352 _0285_
*353 _0286_
*354 _0287_
*355 _0288_
*356 _0289_
*357 _0290_
*358 _0291_
*359 _0292_
*360 _0293_
*361 _0294_
*362 _0295_
*363 _0296_
*364 _0297_
*365 _0298_
*366 _0299_
*367 _0300_
*368 _0301_
*369 _0302_
*370 _0303_
*371 _0304_
*372 _0305_
*373 _0306_
*374 _0307_
*375 _0308_
*376 _0309_
*377 _0310_
*378 _0311_
*379 _0312_
*380 _0313_
*381 _0314_
*382 _0315_
*383 _0316_
*384 _0317_
*385 _0318_
*386 _0319_
*387 _0320_
*388 _0321_
*389 _0322_
*390 _0323_
*391 _0324_
*392 _0325_
*393 _0326_
*394 _0327_
*395 _0328_
*396 _0329_
*397 _0330_
*398 _0331_
*399 _0332_
*400 _0333_
*401 _0334_
*402 _0335_
*403 _0336_
*404 _0337_
*405 _0338_
*406 _0339_
*407 _0340_
*408 _0341_
*409 _0342_
*410 _0343_
*411 _0344_
*412 _0345_
*413 _0346_
*414 _0347_
*415 _0348_
*416 _0349_
*417 _0350_
*418 _0351_
*419 _0352_
*420 _0353_
*421 _0354_
*422 _0355_
*423 _0356_
*424 _0357_
*425 _0358_
*426 _0359_
*427 _0360_
*428 _0361_
*429 _0362_
*430 _0363_
*431 _0364_
*432 _0365_
*433 _0366_
*434 _0367_
*435 _0368_
*436 _0369_
*437 _0370_
*438 _0371_
*439 _0372_
*440 _0373_
*441 _0374_
*442 _0375_
*443 _0376_
*444 _0377_
*445 _0378_
*446 _0379_
*447 _0380_
*448 _0381_
*449 _0382_
*450 _0383_
*451 _0384_
*452 _0385_
*453 _0386_
*454 _0387_
*455 _0388_
*456 _0389_
*457 _0390_
*458 _0391_
*459 _0392_
*460 _0393_
*461 _0394_
*462 _0395_
*463 _0396_
*464 _0397_
*465 _0398_
*466 _0399_
*467 _0400_
*468 _0401_
*469 _0402_
*470 _0403_
*471 _0404_
*472 _0405_
*473 _0406_
*474 _0407_
*475 _0408_
*476 _0409_
*477 _0410_
*478 _0411_
*479 _0412_
*480 _0413_
*481 _0414_
*482 _0415_
*483 _0416_
*484 _0417_
*485 _0418_
*486 _0419_
*487 _0420_
*488 _0421_
*489 _0422_
*490 _0423_
*491 _0424_
*492 _0425_
*493 _0426_
*494 _0427_
*495 _0428_
*496 _0429_
*497 _0430_
*498 _0431_
*499 _0432_
*500 _0433_
*501 _0434_
*502 _0435_
*503 _0436_
*504 _0437_
*505 _0438_
*506 _0439_
*507 _0440_
*508 _0441_
*509 _0442_
*510 _0443_
*511 _0444_
*512 _0445_
*513 _0446_
*514 _0447_
*515 _0448_
*516 _0449_
*517 _0450_
*518 _0451_
*519 _0452_
*520 _0453_
*521 _0454_
*522 _0455_
*523 _0456_
*524 _0457_
*525 _0458_
*526 _0459_
*527 _0460_
*528 _0461_
*529 _0462_
*530 _0463_
*531 _0464_
*532 _0465_
*533 _0466_
*534 _0467_
*535 _0468_
*536 _0469_
*537 _0470_
*538 _0471_
*539 _0472_
*540 _0473_
*541 _0474_
*542 _0475_
*543 _0476_
*544 _0477_
*545 _0478_
*546 _0479_
*547 _0480_
*548 _0481_
*549 _0482_
*550 _0483_
*551 _0484_
*552 _0485_
*553 _0486_
*554 _0487_
*555 _0488_
*556 _0489_
*557 _0490_
*558 _0491_
*559 _0492_
*560 _0493_
*561 _0494_
*562 _0495_
*563 _0496_
*564 _0497_
*565 _0498_
*566 _0499_
*567 _0500_
*568 _0501_
*569 _0502_
*570 _0503_
*571 _0504_
*572 _0505_
*573 _0506_
*574 _0507_
*575 _0508_
*576 _0509_
*577 _0510_
*578 _0511_
*579 _0512_
*580 _0513_
*581 _0514_
*582 _0515_
*583 _0516_
*584 _0517_
*585 _0518_
*586 _0519_
*587 _0520_
*588 _0521_
*589 _0522_
*590 _0523_
*591 _0524_
*592 _0525_
*593 _0526_
*594 _0527_
*595 _0528_
*596 _0529_
*597 _0530_
*598 _0531_
*599 _0532_
*600 _0533_
*601 _0534_
*602 _0535_
*603 _0536_
*604 _0537_
*605 _0538_
*606 _0539_
*607 _0540_
*608 _0541_
*609 _0542_
*610 _0543_
*611 _0544_
*612 _0545_
*613 _0546_
*614 _0547_
*615 _0548_
*616 _0549_
*617 _0550_
*618 _0551_
*619 _0552_
*620 _0553_
*621 _0554_
*622 _0555_
*623 _0556_
*624 _0557_
*625 _0558_
*626 _0559_
*627 _0560_
*628 _0561_
*629 _0562_
*630 _0563_
*631 _0564_
*632 _0565_
*633 _0566_
*634 _0567_
*635 _0568_
*636 _0569_
*637 _0570_
*638 _0571_
*639 _0572_
*640 _0573_
*641 _0574_
*642 _0575_
*643 _0576_
*644 _0577_
*645 _0578_
*646 _0579_
*647 _0580_
*648 _0581_
*649 _0582_
*650 _0583_
*651 _0584_
*652 _0585_
*653 _0586_
*654 _0587_
*655 _0588_
*656 _0589_
*657 _0590_
*658 _0591_
*659 _0592_
*660 _0593_
*661 _0594_
*662 _0595_
*663 _0596_
*664 _0597_
*665 _0598_
*666 _0599_
*667 _0600_
*668 _0601_
*669 _0602_
*670 _0603_
*671 _0604_
*672 _0605_
*673 _0606_
*674 _0607_
*675 _0608_
*676 _0609_
*677 _0610_
*678 _0611_
*679 _0612_
*680 _0613_
*681 _0614_
*682 _0615_
*683 _0616_
*684 _0617_
*685 _0618_
*686 _0619_
*687 _0620_
*688 _0621_
*689 _0622_
*690 _0623_
*691 _0624_
*692 _0625_
*693 _0626_
*694 _0627_
*695 _0628_
*696 _0629_
*697 _0630_
*698 _0631_
*699 _0632_
*700 _0633_
*701 _0634_
*702 _0635_
*703 _0636_
*704 _0637_
*705 _0638_
*706 _0639_
*707 _0640_
*708 _0641_
*709 _0642_
*710 _0643_
*711 _0644_
*712 _0645_
*713 _0646_
*714 _0647_
*715 _0648_
*716 _0649_
*717 _0650_
*718 _0651_
*719 _0652_
*720 _0653_
*721 _0654_
*722 _0655_
*723 _0656_
*724 _0657_
*725 _0658_
*726 _0659_
*727 _0660_
*728 _0661_
*729 _0662_
*730 _0663_
*731 _0664_
*732 _0665_
*733 _0666_
*734 _0667_
*735 _0668_
*736 _0669_
*737 _0670_
*738 _0671_
*739 _0672_
*740 _0673_
*741 _0674_
*742 _0675_
*743 _0676_
*744 _0677_
*745 _0678_
*746 _0679_
*747 _0680_
*748 _0681_
*749 _0682_
*750 _0683_
*751 _0684_
*752 _0685_
*753 _0686_
*754 _0687_
*755 _0688_
*756 _0689_
*757 _0690_
*758 _0691_
*759 _0692_
*760 _0693_
*761 _0694_
*762 _0695_
*763 _0696_
*764 _0697_
*765 _0698_
*766 _0699_
*767 _0700_
*768 _0701_
*769 _0702_
*770 _0703_
*771 _0704_
*772 _0705_
*773 _0706_
*774 _0707_
*775 _0708_
*776 _0709_
*777 _0710_
*778 _0711_
*779 _0712_
*780 _0713_
*781 _0714_
*782 _0715_
*783 _0716_
*784 _0717_
*785 _0718_
*786 _0719_
*787 _0720_
*788 _0721_
*789 _0722_
*790 _0723_
*791 _0724_
*792 _0725_
*793 _0726_
*794 _0727_
*795 _0728_
*796 _0729_
*797 _0730_
*798 _0731_
*799 _0732_
*800 _0733_
*801 _0734_
*802 _0735_
*803 _0736_
*804 _0737_
*805 _0738_
*806 _0739_
*807 _0740_
*808 _0741_
*809 _0742_
*810 _0743_
*811 _0744_
*812 _0745_
*813 _0746_
*814 _0747_
*815 _0748_
*816 _0749_
*817 _0750_
*818 _0751_
*819 _0752_
*820 _0753_
*821 _0754_
*822 _0755_
*823 _0756_
*824 _0757_
*825 _0758_
*826 _0759_
*827 _0760_
*828 _0761_
*829 _0762_
*830 _0763_
*831 _0764_
*832 _0765_
*833 _0766_
*834 _0767_
*835 _0768_
*836 _0769_
*837 _0770_
*838 _0771_
*839 _0772_
*840 _0773_
*841 _0774_
*842 _0775_
*843 _0776_
*844 _0777_
*845 _0778_
*846 _0779_
*847 _0780_
*848 _0781_
*849 _0782_
*850 _0783_
*851 _0784_
*852 _0785_
*853 _0786_
*854 _0787_
*855 _0788_
*856 _0789_
*857 _0790_
*858 _0791_
*859 _0792_
*860 _0793_
*861 _0794_
*862 _0795_
*863 _0796_
*864 _0797_
*865 _0798_
*866 _0799_
*867 _0800_
*868 _0801_
*869 _0802_
*870 _0803_
*871 _0804_
*872 _0805_
*873 _0806_
*874 _0807_
*875 _0808_
*876 _0809_
*877 _0810_
*878 _0811_
*879 _0812_
*880 _0813_
*881 _0814_
*882 _0815_
*883 _0816_
*884 _0817_
*885 _0818_
*886 _0819_
*887 _0820_
*888 _0821_
*889 _0822_
*890 _0823_
*891 _0824_
*892 _0825_
*893 _0826_
*894 _0827_
*895 _0828_
*896 _0829_
*897 _0830_
*898 _0831_
*899 _0832_
*900 _0833_
*901 _0834_
*902 _0835_
*903 _0836_
*904 _0837_
*905 _0838_
*906 _0839_
*907 _0840_
*908 _0841_
*909 _0842_
*910 _0843_
*911 _0844_
*912 _0845_
*913 _0846_
*914 _0847_
*915 _0848_
*916 _0849_
*917 _0850_
*918 _0851_
*919 _0852_
*920 _0853_
*921 _0854_
*922 _0855_
*923 _0856_
*924 _0857_
*925 _0858_
*926 _0859_
*927 _0860_
*928 _0861_
*929 _0862_
*930 _0863_
*931 _0864_
*932 _0865_
*933 _0866_
*934 _0867_
*935 _0868_
*936 _0869_
*937 _0870_
*938 _0871_
*939 _0872_
*940 _0873_
*941 _0874_
*942 _0875_
*943 _0876_
*944 _0877_
*945 _0878_
*946 _0879_
*947 _0880_
*948 _0881_
*949 _0882_
*950 _0883_
*951 _0884_
*952 _0885_
*953 _0886_
*954 _0887_
*955 _0888_
*956 _0889_
*957 _0890_
*958 _0891_
*959 _0892_
*960 _0893_
*961 _0894_
*962 _0895_
*963 _0896_
*964 _0897_
*965 _0898_
*966 _0899_
*967 _0900_
*968 _0901_
*969 _0902_
*970 _0903_
*971 _0904_
*972 _0905_
*973 _0906_
*974 _0907_
*975 _0908_
*976 _0909_
*977 _0910_
*978 _0911_
*979 _0912_
*980 _0913_
*981 _0914_
*982 _0915_
*983 _0916_
*984 _0917_
*985 _0918_
*986 _0919_
*987 _0920_
*988 _0921_
*989 _0922_
*990 _0923_
*991 _0924_
*992 _0925_
*993 _0926_
*994 _0927_
*995 _0928_
*996 _0929_
*997 _0930_
*998 _0931_
*999 _0932_
*1000 _0933_
*1001 _0934_
*1002 _0935_
*1003 _0936_
*1004 _0937_
*1005 _0938_
*1006 _0939_
*1007 _0940_
*1008 _0941_
*1009 _0942_
*1010 _0943_
*1011 _0944_
*1012 _0945_
*1013 _0946_
*1014 _0947_
*1015 _0948_
*1016 _0949_
*1017 _0950_
*1018 _0951_
*1019 _0952_
*1020 _0953_
*1021 _0954_
*1022 _0955_
*1023 _0956_
*1024 _0957_
*1025 _0958_
*1026 _0959_
*1027 _0960_
*1028 _0961_
*1029 _0962_
*1030 _0963_
*1031 _0964_
*1032 _0965_
*1033 _0966_
*1034 _0967_
*1035 _0968_
*1036 _0969_
*1037 _0970_
*1038 _0971_
*1039 _0972_
*1040 _0973_
*1041 _0974_
*1042 _0975_
*1043 _0976_
*1044 _0977_
*1045 _0978_
*1046 _0979_
*1047 _0980_
*1048 _0981_
*1049 _0982_
*1050 _0983_
*1051 _0984_
*1052 _0985_
*1053 _0986_
*1054 _0987_
*1055 _0988_
*1056 _0989_
*1057 _0990_
*1058 _0991_
*1059 _0992_
*1060 _0993_
*1061 _0994_
*1062 _0995_
*1063 _0996_
*1064 _0997_
*1065 _0998_
*1066 _0999_
*1067 _1000_
*1068 _1001_
*1069 _1002_
*1070 _1003_
*1071 _1004_
*1072 _1005_
*1073 _1006_
*1074 _1007_
*1075 _1008_
*1076 _1009_
*1077 _1010_
*1078 _1011_
*1079 _1012_
*1080 _1013_
*1081 _1014_
*1082 _1015_
*1083 _1016_
*1084 _1017_
*1085 _1018_
*1086 _1019_
*1087 _1020_
*1088 _1021_
*1089 _1022_
*1090 _1023_
*1091 _1024_
*1092 _1025_
*1093 _1026_
*1094 _1027_
*1095 _1028_
*1096 _1029_
*1097 _1030_
*1098 _1031_
*1099 _1032_
*1100 _1033_
*1101 _1034_
*1102 _1035_
*1103 _1036_
*1104 _1037_
*1105 _1038_
*1106 _1039_
*1107 _1040_
*1108 _1041_
*1109 _1042_
*1110 _1043_
*1111 _1044_
*1112 _1045_
*1113 _1046_
*1114 _1047_
*1115 _1048_
*1116 _1049_
*1117 _1050_
*1118 _1051_
*1119 _1052_
*1120 _1053_
*1121 _1054_
*1122 _1055_
*1123 _1056_
*1124 _1057_
*1125 _1058_
*1126 _1059_
*1127 _1060_
*1128 _1061_
*1129 _1062_
*1130 _1063_
*1131 _1064_
*1132 _1065_
*1133 _1066_
*1134 _1067_
*1135 _1068_
*1136 _1069_
*1137 _1070_
*1138 _1071_
*1139 _1072_
*1140 _1073_
*1141 _1074_
*1142 _1075_
*1143 _1076_
*1144 _1077_
*1145 _1078_
*1146 _1079_
*1147 _1080_
*1148 _1081_
*1149 _1082_
*1150 _1083_
*1151 _1084_
*1152 _1085_
*1153 _1086_
*1154 _1087_
*1155 _1088_
*1156 _1089_
*1157 _1090_
*1158 _1091_
*1159 _1092_
*1160 _1093_
*1161 _1094_
*1162 _1095_
*1163 _1096_
*1164 _1097_
*1165 _1098_
*1166 _1099_
*1167 _1100_
*1168 _1101_
*1169 _1102_
*1170 _1103_
*1171 _1104_
*1172 _1105_
*1173 _1106_
*1174 _1107_
*1175 _1108_
*1176 _1109_
*1177 _1110_
*1178 _1111_
*1179 _1112_
*1180 _1113_
*1181 _1114_
*1182 _1115_
*1183 _1116_
*1184 _1117_
*1185 _1118_
*1186 _1119_
*1187 _1120_
*1188 _1121_
*1189 _1122_
*1190 _1123_
*1191 _1124_
*1192 _1125_
*1193 _1126_
*1194 _1127_
*1195 _1128_
*1196 _1129_
*1197 _1130_
*1198 _1131_
*1199 _1132_
*1200 _1133_
*1201 _1134_
*1202 _1135_
*1203 _1136_
*1204 _1137_
*1205 _1138_
*1206 _1139_
*1207 _1140_
*1208 _1141_
*1209 _1142_
*1210 _1143_
*1211 _1144_
*1212 _1145_
*1213 _1146_
*1214 _1147_
*1215 _1148_
*1216 _1149_
*1217 _1150_
*1218 _1151_
*1219 _1152_
*1220 _1153_
*1221 _1154_
*1222 _1155_
*1223 _1156_
*1224 _1157_
*1225 _1158_
*1226 _1159_
*1227 _1160_
*1228 _1161_
*1229 _1162_
*1230 _1163_
*1231 _1164_
*1232 _1165_
*1233 _1166_
*1234 _1167_
*1235 _1168_
*1236 _1169_
*1237 _1170_
*1238 _1171_
*1239 _1172_
*1240 _1173_
*1241 _1174_
*1242 _1175_
*1243 _1176_
*1244 _1177_
*1245 _1178_
*1246 _1179_
*1247 _1180_
*1248 _1181_
*1249 _1182_
*1250 _1183_
*1251 _1184_
*1252 _1185_
*1253 _1186_
*1254 _1187_
*1255 _1188_
*1256 _1189_
*1257 _1190_
*1258 _1191_
*1259 _1192_
*1260 _1193_
*1261 _1194_
*1262 _1195_
*1263 _1196_
*1264 _1197_
*1265 _1198_
*1266 _1199_
*1267 _1200_
*1268 _1201_
*1269 _1202_
*1270 _1203_
*1271 _1204_
*1272 _1205_
*1273 _1206_
*1274 _1207_
*1275 _1208_
*1276 _1209_
*1277 _1210_
*1278 _1211_
*1279 _1212_
*1280 _1213_
*1281 _1214_
*1282 _1215_
*1283 _1216_
*1284 _1217_
*1285 _1218_
*1286 _1219_
*1287 _1220_
*1288 _1221_
*1289 _1222_
*1290 _1223_
*1291 _1224_
*1292 _1225_
*1293 _1226_
*1294 _1227_
*1295 _1228_
*1296 _1229_
*1297 _1230_
*1298 _1231_
*1299 _1232_
*1300 _1233_
*1301 _1234_
*1302 _1235_
*1303 _1236_
*1304 _1237_
*1305 _1238_
*1306 _1239_
*1307 _1240_
*1308 _1241_
*1309 _1242_
*1310 _1243_
*1311 _1244_
*1312 _1245_
*1313 _1246_
*1314 _1247_
*1315 _1248_
*1316 _1249_
*1317 _1250_
*1318 _1251_
*1319 _1252_
*1320 _1253_
*1321 _1254_
*1322 _1255_
*1323 _1256_
*1324 _1257_
*1325 _1258_
*1326 _1259_
*1327 _1260_
*1328 _1261_
*1329 _1262_
*1330 _1263_
*1331 _1264_
*1332 _1265_
*1333 _1266_
*1334 _1267_
*1335 _1268_
*1336 _1269_
*1337 _1270_
*1338 _1271_
*1339 _1272_
*1340 _1273_
*1341 _1274_
*1342 _1275_
*1343 _1276_
*1344 _1277_
*1345 _1278_
*1346 _1279_
*1347 _1280_
*1348 _1281_
*1349 _1282_
*1350 _1283_
*1351 _1284_
*1352 _1285_
*1353 _1286_
*1354 _1287_
*1355 _1288_
*1356 _1289_
*1357 _1290_
*1358 _1291_
*1359 _1292_
*1360 _1293_
*1361 _1294_
*1362 _1295_
*1363 _1296_
*1364 _1297_
*1365 _1298_
*1366 _1299_
*1367 _1300_
*1368 _1301_
*1369 _1302_
*1370 _1303_
*1371 _1304_
*1372 _1305_
*1373 _1306_
*1374 _1307_
*1375 _1308_
*1376 _1309_
*1377 _1310_
*1378 _1311_
*1379 _1312_
*1380 _1313_
*1381 _1314_
*1382 _1315_
*1383 _1316_
*1384 _1317_
*1385 _1318_
*1386 _1319_
*1387 _1320_
*1388 _1321_
*1389 _1322_
*1390 _1323_
*1391 _1324_
*1392 _1325_
*1393 _1326_
*1394 _1327_
*1395 _1328_
*1396 _1329_
*1397 _1330_
*1398 _1331_
*1399 _1332_
*1400 _1333_
*1401 _1334_
*1402 _1335_
*1403 _1336_
*1404 _1337_
*1405 _1338_
*1406 _1339_
*1407 _1340_
*1408 _1341_
*1409 _1342_
*1410 _1343_
*1411 _1344_
*1412 _1345_
*1413 _1346_
*1414 _1347_
*1415 _1348_
*1416 _1349_
*1417 _1350_
*1418 _1351_
*1419 _1352_
*1420 _1353_
*1421 _1354_
*1422 _1355_
*1423 _1356_
*1424 _1357_
*1425 _1358_
*1426 _1359_
*1427 _1360_
*1428 _1361_
*1429 _1362_
*1430 _1363_
*1431 _1364_
*1432 _1365_
*1433 _1366_
*1434 net1
*1435 net10
*1436 net11
*1437 net12
*1438 net13
*1439 net14
*1440 net15
*1441 net16
*1442 net17
*1443 net18
*1444 net19
*1445 net2
*1446 net20
*1447 net21
*1448 net22
*1449 net23
*1450 net24
*1451 net25
*1452 net26
*1453 net27
*1454 net28
*1455 net29
*1456 net3
*1457 net30
*1458 net31
*1459 net32
*1460 net33
*1461 net34
*1462 net35
*1463 net36
*1464 net37
*1465 net38
*1466 net39
*1467 net4
*1468 net40
*1469 net41
*1470 net42
*1471 net43
*1472 net44
*1473 net45
*1474 net46
*1475 net47
*1476 net48
*1477 net49
*1478 net5
*1479 net50
*1480 net51
*1481 net52
*1482 net53
*1483 net54
*1484 net55
*1485 net56
*1486 net57
*1487 net58
*1488 net59
*1489 net6
*1490 net60
*1491 net61
*1492 net62
*1493 net63
*1494 net64
*1495 net65
*1496 net66
*1497 net67
*1498 net68
*1499 net69
*1500 net7
*1501 net70
*1502 net71
*1503 net72
*1504 net73
*1505 net74
*1506 net75
*1507 net76
*1508 net77
*1509 net78
*1510 net79
*1511 net8
*1512 net80
*1513 net81
*1514 net82
*1515 net83
*1516 net84
*1517 net85
*1518 net86
*1519 net87
*1520 net88
*1521 net89
*1522 net9
*1523 net90
*1524 net91
*1525 net92
*1526 net93
*1527 net94
*1528 net95
*1529 ANTENNA_1
*1530 ANTENNA_10
*1531 ANTENNA_11
*1532 ANTENNA_12
*1533 ANTENNA_13
*1534 ANTENNA_2
*1535 ANTENNA_3
*1536 ANTENNA_4
*1537 ANTENNA_5
*1538 ANTENNA_6
*1539 ANTENNA_7
*1540 ANTENNA_8
*1541 ANTENNA_9
*1542 FILLER_0_0_1007
*1543 FILLER_0_0_1009
*1544 FILLER_0_0_1021
*1545 FILLER_0_0_1033
*1546 FILLER_0_0_1037
*1547 FILLER_0_0_1045
*1548 FILLER_0_0_1052
*1549 FILLER_0_0_1065
*1550 FILLER_0_0_1077
*1551 FILLER_0_0_1089
*1552 FILLER_0_0_109
*1553 FILLER_0_0_1093
*1554 FILLER_0_0_1105
*1555 FILLER_0_0_1113
*1556 FILLER_0_0_1121
*1557 FILLER_0_0_113
*1558 FILLER_0_0_125
*1559 FILLER_0_0_13
*1560 FILLER_0_0_133
*1561 FILLER_0_0_139
*1562 FILLER_0_0_141
*1563 FILLER_0_0_153
*1564 FILLER_0_0_165
*1565 FILLER_0_0_169
*1566 FILLER_0_0_181
*1567 FILLER_0_0_193
*1568 FILLER_0_0_203
*1569 FILLER_0_0_215
*1570 FILLER_0_0_223
*1571 FILLER_0_0_225
*1572 FILLER_0_0_237
*1573 FILLER_0_0_249
*1574 FILLER_0_0_25
*1575 FILLER_0_0_253
*1576 FILLER_0_0_265
*1577 FILLER_0_0_275
*1578 FILLER_0_0_279
*1579 FILLER_0_0_281
*1580 FILLER_0_0_29
*1581 FILLER_0_0_293
*1582 FILLER_0_0_305
*1583 FILLER_0_0_309
*1584 FILLER_0_0_321
*1585 FILLER_0_0_333
*1586 FILLER_0_0_337
*1587 FILLER_0_0_345
*1588 FILLER_0_0_357
*1589 FILLER_0_0_363
*1590 FILLER_0_0_365
*1591 FILLER_0_0_377
*1592 FILLER_0_0_389
*1593 FILLER_0_0_393
*1594 FILLER_0_0_405
*1595 FILLER_0_0_41
*1596 FILLER_0_0_415
*1597 FILLER_0_0_419
*1598 FILLER_0_0_421
*1599 FILLER_0_0_433
*1600 FILLER_0_0_445
*1601 FILLER_0_0_449
*1602 FILLER_0_0_461
*1603 FILLER_0_0_473
*1604 FILLER_0_0_477
*1605 FILLER_0_0_485
*1606 FILLER_0_0_497
*1607 FILLER_0_0_503
*1608 FILLER_0_0_505
*1609 FILLER_0_0_517
*1610 FILLER_0_0_529
*1611 FILLER_0_0_53
*1612 FILLER_0_0_533
*1613 FILLER_0_0_545
*1614 FILLER_0_0_557
*1615 FILLER_0_0_57
*1616 FILLER_0_0_570
*1617 FILLER_0_0_582
*1618 FILLER_0_0_589
*1619 FILLER_0_0_601
*1620 FILLER_0_0_613
*1621 FILLER_0_0_617
*1622 FILLER_0_0_625
*1623 FILLER_0_0_630
*1624 FILLER_0_0_642
*1625 FILLER_0_0_645
*1626 FILLER_0_0_65
*1627 FILLER_0_0_657
*1628 FILLER_0_0_669
*1629 FILLER_0_0_673
*1630 FILLER_0_0_685
*1631 FILLER_0_0_693
*1632 FILLER_0_0_701
*1633 FILLER_0_0_713
*1634 FILLER_0_0_725
*1635 FILLER_0_0_729
*1636 FILLER_0_0_741
*1637 FILLER_0_0_753
*1638 FILLER_0_0_757
*1639 FILLER_0_0_765
*1640 FILLER_0_0_77
*1641 FILLER_0_0_772
*1642 FILLER_0_0_785
*1643 FILLER_0_0_797
*1644 FILLER_0_0_809
*1645 FILLER_0_0_813
*1646 FILLER_0_0_825
*1647 FILLER_0_0_83
*1648 FILLER_0_0_837
*1649 FILLER_0_0_847
*1650 FILLER_0_0_85
*1651 FILLER_0_0_859
*1652 FILLER_0_0_867
*1653 FILLER_0_0_869
*1654 FILLER_0_0_881
*1655 FILLER_0_0_893
*1656 FILLER_0_0_897
*1657 FILLER_0_0_9
*1658 FILLER_0_0_905
*1659 FILLER_0_0_915
*1660 FILLER_0_0_923
*1661 FILLER_0_0_925
*1662 FILLER_0_0_937
*1663 FILLER_0_0_949
*1664 FILLER_0_0_953
*1665 FILLER_0_0_965
*1666 FILLER_0_0_97
*1667 FILLER_0_0_977
*1668 FILLER_0_0_987
*1669 FILLER_0_0_999
*1670 FILLER_0_100_1005
*1671 FILLER_0_100_1017
*1672 FILLER_0_100_1029
*1673 FILLER_0_100_1035
*1674 FILLER_0_100_1037
*1675 FILLER_0_100_1049
*1676 FILLER_0_100_1061
*1677 FILLER_0_100_1073
*1678 FILLER_0_100_1085
*1679 FILLER_0_100_109
*1680 FILLER_0_100_1091
*1681 FILLER_0_100_1093
*1682 FILLER_0_100_1105
*1683 FILLER_0_100_1117
*1684 FILLER_0_100_121
*1685 FILLER_0_100_133
*1686 FILLER_0_100_139
*1687 FILLER_0_100_141
*1688 FILLER_0_100_15
*1689 FILLER_0_100_153
*1690 FILLER_0_100_165
*1691 FILLER_0_100_177
*1692 FILLER_0_100_189
*1693 FILLER_0_100_195
*1694 FILLER_0_100_197
*1695 FILLER_0_100_209
*1696 FILLER_0_100_221
*1697 FILLER_0_100_233
*1698 FILLER_0_100_241
*1699 FILLER_0_100_247
*1700 FILLER_0_100_251
*1701 FILLER_0_100_253
*1702 FILLER_0_100_265
*1703 FILLER_0_100_27
*1704 FILLER_0_100_277
*1705 FILLER_0_100_289
*1706 FILLER_0_100_29
*1707 FILLER_0_100_3
*1708 FILLER_0_100_301
*1709 FILLER_0_100_307
*1710 FILLER_0_100_309
*1711 FILLER_0_100_321
*1712 FILLER_0_100_333
*1713 FILLER_0_100_341
*1714 FILLER_0_100_356
*1715 FILLER_0_100_365
*1716 FILLER_0_100_376
*1717 FILLER_0_100_388
*1718 FILLER_0_100_400
*1719 FILLER_0_100_41
*1720 FILLER_0_100_412
*1721 FILLER_0_100_421
*1722 FILLER_0_100_433
*1723 FILLER_0_100_445
*1724 FILLER_0_100_457
*1725 FILLER_0_100_465
*1726 FILLER_0_100_472
*1727 FILLER_0_100_477
*1728 FILLER_0_100_489
*1729 FILLER_0_100_501
*1730 FILLER_0_100_513
*1731 FILLER_0_100_525
*1732 FILLER_0_100_53
*1733 FILLER_0_100_531
*1734 FILLER_0_100_533
*1735 FILLER_0_100_545
*1736 FILLER_0_100_557
*1737 FILLER_0_100_565
*1738 FILLER_0_100_574
*1739 FILLER_0_100_586
*1740 FILLER_0_100_589
*1741 FILLER_0_100_601
*1742 FILLER_0_100_613
*1743 FILLER_0_100_625
*1744 FILLER_0_100_637
*1745 FILLER_0_100_643
*1746 FILLER_0_100_645
*1747 FILLER_0_100_65
*1748 FILLER_0_100_657
*1749 FILLER_0_100_669
*1750 FILLER_0_100_681
*1751 FILLER_0_100_693
*1752 FILLER_0_100_699
*1753 FILLER_0_100_701
*1754 FILLER_0_100_713
*1755 FILLER_0_100_728
*1756 FILLER_0_100_740
*1757 FILLER_0_100_752
*1758 FILLER_0_100_764
*1759 FILLER_0_100_77
*1760 FILLER_0_100_776
*1761 FILLER_0_100_788
*1762 FILLER_0_100_800
*1763 FILLER_0_100_813
*1764 FILLER_0_100_825
*1765 FILLER_0_100_83
*1766 FILLER_0_100_837
*1767 FILLER_0_100_849
*1768 FILLER_0_100_85
*1769 FILLER_0_100_861
*1770 FILLER_0_100_867
*1771 FILLER_0_100_869
*1772 FILLER_0_100_881
*1773 FILLER_0_100_893
*1774 FILLER_0_100_902
*1775 FILLER_0_100_914
*1776 FILLER_0_100_922
*1777 FILLER_0_100_925
*1778 FILLER_0_100_937
*1779 FILLER_0_100_949
*1780 FILLER_0_100_961
*1781 FILLER_0_100_97
*1782 FILLER_0_100_973
*1783 FILLER_0_100_979
*1784 FILLER_0_100_981
*1785 FILLER_0_100_993
*1786 FILLER_0_101_1001
*1787 FILLER_0_101_1007
*1788 FILLER_0_101_1009
*1789 FILLER_0_101_1021
*1790 FILLER_0_101_1033
*1791 FILLER_0_101_1045
*1792 FILLER_0_101_105
*1793 FILLER_0_101_1057
*1794 FILLER_0_101_1063
*1795 FILLER_0_101_1065
*1796 FILLER_0_101_1077
*1797 FILLER_0_101_1089
*1798 FILLER_0_101_1101
*1799 FILLER_0_101_111
*1800 FILLER_0_101_1113
*1801 FILLER_0_101_1119
*1802 FILLER_0_101_1121
*1803 FILLER_0_101_113
*1804 FILLER_0_101_125
*1805 FILLER_0_101_137
*1806 FILLER_0_101_149
*1807 FILLER_0_101_15
*1808 FILLER_0_101_161
*1809 FILLER_0_101_167
*1810 FILLER_0_101_169
*1811 FILLER_0_101_181
*1812 FILLER_0_101_193
*1813 FILLER_0_101_205
*1814 FILLER_0_101_217
*1815 FILLER_0_101_223
*1816 FILLER_0_101_225
*1817 FILLER_0_101_237
*1818 FILLER_0_101_252
*1819 FILLER_0_101_264
*1820 FILLER_0_101_27
*1821 FILLER_0_101_273
*1822 FILLER_0_101_279
*1823 FILLER_0_101_281
*1824 FILLER_0_101_293
*1825 FILLER_0_101_3
*1826 FILLER_0_101_305
*1827 FILLER_0_101_317
*1828 FILLER_0_101_329
*1829 FILLER_0_101_335
*1830 FILLER_0_101_337
*1831 FILLER_0_101_349
*1832 FILLER_0_101_361
*1833 FILLER_0_101_369
*1834 FILLER_0_101_387
*1835 FILLER_0_101_39
*1836 FILLER_0_101_391
*1837 FILLER_0_101_393
*1838 FILLER_0_101_405
*1839 FILLER_0_101_417
*1840 FILLER_0_101_429
*1841 FILLER_0_101_441
*1842 FILLER_0_101_447
*1843 FILLER_0_101_449
*1844 FILLER_0_101_461
*1845 FILLER_0_101_473
*1846 FILLER_0_101_485
*1847 FILLER_0_101_497
*1848 FILLER_0_101_503
*1849 FILLER_0_101_505
*1850 FILLER_0_101_51
*1851 FILLER_0_101_517
*1852 FILLER_0_101_529
*1853 FILLER_0_101_541
*1854 FILLER_0_101_55
*1855 FILLER_0_101_553
*1856 FILLER_0_101_559
*1857 FILLER_0_101_561
*1858 FILLER_0_101_57
*1859 FILLER_0_101_573
*1860 FILLER_0_101_585
*1861 FILLER_0_101_597
*1862 FILLER_0_101_609
*1863 FILLER_0_101_615
*1864 FILLER_0_101_617
*1865 FILLER_0_101_629
*1866 FILLER_0_101_636
*1867 FILLER_0_101_648
*1868 FILLER_0_101_660
*1869 FILLER_0_101_673
*1870 FILLER_0_101_685
*1871 FILLER_0_101_69
*1872 FILLER_0_101_697
*1873 FILLER_0_101_709
*1874 FILLER_0_101_721
*1875 FILLER_0_101_727
*1876 FILLER_0_101_729
*1877 FILLER_0_101_741
*1878 FILLER_0_101_753
*1879 FILLER_0_101_765
*1880 FILLER_0_101_777
*1881 FILLER_0_101_783
*1882 FILLER_0_101_785
*1883 FILLER_0_101_797
*1884 FILLER_0_101_809
*1885 FILLER_0_101_81
*1886 FILLER_0_101_821
*1887 FILLER_0_101_833
*1888 FILLER_0_101_839
*1889 FILLER_0_101_841
*1890 FILLER_0_101_849
*1891 FILLER_0_101_855
*1892 FILLER_0_101_867
*1893 FILLER_0_101_874
*1894 FILLER_0_101_886
*1895 FILLER_0_101_894
*1896 FILLER_0_101_897
*1897 FILLER_0_101_909
*1898 FILLER_0_101_921
*1899 FILLER_0_101_93
*1900 FILLER_0_101_933
*1901 FILLER_0_101_945
*1902 FILLER_0_101_951
*1903 FILLER_0_101_953
*1904 FILLER_0_101_965
*1905 FILLER_0_101_977
*1906 FILLER_0_101_989
*1907 FILLER_0_102_1005
*1908 FILLER_0_102_1017
*1909 FILLER_0_102_1029
*1910 FILLER_0_102_1035
*1911 FILLER_0_102_1037
*1912 FILLER_0_102_1049
*1913 FILLER_0_102_1061
*1914 FILLER_0_102_1073
*1915 FILLER_0_102_1085
*1916 FILLER_0_102_109
*1917 FILLER_0_102_1091
*1918 FILLER_0_102_1093
*1919 FILLER_0_102_1105
*1920 FILLER_0_102_1117
*1921 FILLER_0_102_121
*1922 FILLER_0_102_133
*1923 FILLER_0_102_139
*1924 FILLER_0_102_141
*1925 FILLER_0_102_15
*1926 FILLER_0_102_153
*1927 FILLER_0_102_165
*1928 FILLER_0_102_177
*1929 FILLER_0_102_189
*1930 FILLER_0_102_195
*1931 FILLER_0_102_197
*1932 FILLER_0_102_209
*1933 FILLER_0_102_221
*1934 FILLER_0_102_233
*1935 FILLER_0_102_247
*1936 FILLER_0_102_251
*1937 FILLER_0_102_253
*1938 FILLER_0_102_265
*1939 FILLER_0_102_27
*1940 FILLER_0_102_274
*1941 FILLER_0_102_280
*1942 FILLER_0_102_287
*1943 FILLER_0_102_29
*1944 FILLER_0_102_299
*1945 FILLER_0_102_3
*1946 FILLER_0_102_307
*1947 FILLER_0_102_309
*1948 FILLER_0_102_321
*1949 FILLER_0_102_333
*1950 FILLER_0_102_345
*1951 FILLER_0_102_357
*1952 FILLER_0_102_363
*1953 FILLER_0_102_365
*1954 FILLER_0_102_377
*1955 FILLER_0_102_389
*1956 FILLER_0_102_397
*1957 FILLER_0_102_41
*1958 FILLER_0_102_414
*1959 FILLER_0_102_421
*1960 FILLER_0_102_433
*1961 FILLER_0_102_445
*1962 FILLER_0_102_456
*1963 FILLER_0_102_468
*1964 FILLER_0_102_477
*1965 FILLER_0_102_489
*1966 FILLER_0_102_501
*1967 FILLER_0_102_507
*1968 FILLER_0_102_518
*1969 FILLER_0_102_53
*1970 FILLER_0_102_530
*1971 FILLER_0_102_533
*1972 FILLER_0_102_544
*1973 FILLER_0_102_556
*1974 FILLER_0_102_564
*1975 FILLER_0_102_572
*1976 FILLER_0_102_584
*1977 FILLER_0_102_589
*1978 FILLER_0_102_604
*1979 FILLER_0_102_618
*1980 FILLER_0_102_632
*1981 FILLER_0_102_645
*1982 FILLER_0_102_65
*1983 FILLER_0_102_657
*1984 FILLER_0_102_666
*1985 FILLER_0_102_675
*1986 FILLER_0_102_687
*1987 FILLER_0_102_701
*1988 FILLER_0_102_709
*1989 FILLER_0_102_714
*1990 FILLER_0_102_722
*1991 FILLER_0_102_734
*1992 FILLER_0_102_752
*1993 FILLER_0_102_757
*1994 FILLER_0_102_769
*1995 FILLER_0_102_77
*1996 FILLER_0_102_781
*1997 FILLER_0_102_793
*1998 FILLER_0_102_805
*1999 FILLER_0_102_811
*2000 FILLER_0_102_813
*2001 FILLER_0_102_825
*2002 FILLER_0_102_83
*2003 FILLER_0_102_837
*2004 FILLER_0_102_849
*2005 FILLER_0_102_85
*2006 FILLER_0_102_861
*2007 FILLER_0_102_867
*2008 FILLER_0_102_869
*2009 FILLER_0_102_881
*2010 FILLER_0_102_893
*2011 FILLER_0_102_905
*2012 FILLER_0_102_917