* NGSPICE file created from sequential_multiplier_16x16.ext - technology: sky130A

* Black-box entry subcircuit for sky130_ef_sc_hd__decap_12 abstract view
.subckt sky130_ef_sc_hd__decap_12 VGND VPWR VPB VNB
.ends

* Black-box entry subcircuit for sky130_fd_sc_hd__decap_6 abstract view
.subckt sky130_fd_sc_hd__decap_6 VGND VNB VPB VPWR
.ends

* Black-box entry subcircuit for sky130_fd_sc_hd__tapvpwrvgnd_1 abstract view
.subckt sky130_fd_sc_hd__tapvpwrvgnd_1 VGND VPWR
.ends

* Black-box entry subcircuit for sky130_fd_sc_hd__fill_2 abstract view
.subckt sky130_fd_sc_hd__fill_2 VGND VNB VPB VPWR
.ends

* Black-box entry subcircuit for sky130_fd_sc_hd__clkbuf_1 abstract view
.subckt sky130_fd_sc_hd__clkbuf_1 A VGND VNB VPB VPWR X
.ends

* Black-box entry subcircuit for sky130_fd_sc_hd__dfxtp_2 abstract view
.subckt sky130_fd_sc_hd__dfxtp_2 CLK D VGND VNB VPB VPWR Q
.ends

* Black-box entry subcircuit for sky130_fd_sc_hd__fill_1 abstract view
.subckt sky130_fd_sc_hd__fill_1 VGND VNB VPB VPWR
.ends

* Black-box entry subcircuit for sky130_fd_sc_hd__nor2_1 abstract view
.subckt sky130_fd_sc_hd__nor2_1 A B VGND VNB VPB VPWR Y
.ends

* Black-box entry subcircuit for sky130_fd_sc_hd__decap_8 abstract view
.subckt sky130_fd_sc_hd__decap_8 VGND VNB VPB VPWR
.ends

* Black-box entry subcircuit for sky130_fd_sc_hd__xor2_1 abstract view
.subckt sky130_fd_sc_hd__xor2_1 A B VGND VNB VPB VPWR X
.ends

* Black-box entry subcircuit for sky130_fd_sc_hd__decap_4 abstract view
.subckt sky130_fd_sc_hd__decap_4 VGND VNB VPB VPWR
.ends

* Black-box entry subcircuit for sky130_fd_sc_hd__decap_3 abstract view
.subckt sky130_fd_sc_hd__decap_3 VGND VNB VPB VPWR
.ends

* Black-box entry subcircuit for sky130_fd_sc_hd__a32o_1 abstract view
.subckt sky130_fd_sc_hd__a32o_1 A1 A2 A3 B1 B2 VGND VNB VPB VPWR X
.ends

* Black-box entry subcircuit for sky130_fd_sc_hd__or2_1 abstract view
.subckt sky130_fd_sc_hd__or2_1 A B VGND VNB VPB VPWR X
.ends

* Black-box entry subcircuit for sky130_fd_sc_hd__and2_1 abstract view
.subckt sky130_fd_sc_hd__and2_1 A B VGND VNB VPB VPWR X
.ends

* Black-box entry subcircuit for sky130_fd_sc_hd__diode_2 abstract view
.subckt sky130_fd_sc_hd__diode_2 DIODE VGND VNB VPB VPWR
.ends

* Black-box entry subcircuit for sky130_fd_sc_hd__clkbuf_4 abstract view
.subckt sky130_fd_sc_hd__clkbuf_4 A VGND VNB VPB VPWR X
.ends

* Black-box entry subcircuit for sky130_fd_sc_hd__dfxtp_1 abstract view
.subckt sky130_fd_sc_hd__dfxtp_1 CLK D VGND VNB VPB VPWR Q
.ends

* Black-box entry subcircuit for sky130_fd_sc_hd__mux2_1 abstract view
.subckt sky130_fd_sc_hd__mux2_1 A0 A1 S VGND VNB VPB VPWR X
.ends

* Black-box entry subcircuit for sky130_fd_sc_hd__or3b_1 abstract view
.subckt sky130_fd_sc_hd__or3b_1 A B C_N VGND VNB VPB VPWR X
.ends

* Black-box entry subcircuit for sky130_fd_sc_hd__buf_4 abstract view
.subckt sky130_fd_sc_hd__buf_4 A VGND VNB VPB VPWR X
.ends

* Black-box entry subcircuit for sky130_fd_sc_hd__a21oi_1 abstract view
.subckt sky130_fd_sc_hd__a21oi_1 A1 A2 B1 VGND VNB VPB VPWR Y
.ends

* Black-box entry subcircuit for sky130_fd_sc_hd__dlygate4sd3_1 abstract view
.subckt sky130_fd_sc_hd__dlygate4sd3_1 A VGND VNB VPB VPWR X
.ends

* Black-box entry subcircuit for sky130_fd_sc_hd__nand2_1 abstract view
.subckt sky130_fd_sc_hd__nand2_1 A B VGND VNB VPB VPWR Y
.ends

* Black-box entry subcircuit for sky130_fd_sc_hd__a22o_1 abstract view
.subckt sky130_fd_sc_hd__a22o_1 A1 A2 B1 B2 VGND VNB VPB VPWR X
.ends

* Black-box entry subcircuit for sky130_fd_sc_hd__a31o_1 abstract view
.subckt sky130_fd_sc_hd__a31o_1 A1 A2 A3 B1 VGND VNB VPB VPWR X
.ends

* Black-box entry subcircuit for sky130_fd_sc_hd__o21ai_2 abstract view
.subckt sky130_fd_sc_hd__o21ai_2 A1 A2 B1 VGND VNB VPB VPWR Y
.ends

* Black-box entry subcircuit for sky130_fd_sc_hd__o21a_1 abstract view
.subckt sky130_fd_sc_hd__o21a_1 A1 A2 B1 VGND VNB VPB VPWR X
.ends

* Black-box entry subcircuit for sky130_fd_sc_hd__a21o_1 abstract view
.subckt sky130_fd_sc_hd__a21o_1 A1 A2 B1 VGND VNB VPB VPWR X
.ends

* Black-box entry subcircuit for sky130_fd_sc_hd__nand2_2 abstract view
.subckt sky130_fd_sc_hd__nand2_2 A B VGND VNB VPB VPWR Y
.ends

* Black-box entry subcircuit for sky130_fd_sc_hd__dfxtp_4 abstract view
.subckt sky130_fd_sc_hd__dfxtp_4 CLK D VGND VNB VPB VPWR Q
.ends

* Black-box entry subcircuit for sky130_fd_sc_hd__buf_2 abstract view
.subckt sky130_fd_sc_hd__buf_2 A VGND VNB VPB VPWR X
.ends

* Black-box entry subcircuit for sky130_fd_sc_hd__and2b_1 abstract view
.subckt sky130_fd_sc_hd__and2b_1 A_N B VGND VNB VPB VPWR X
.ends

* Black-box entry subcircuit for sky130_fd_sc_hd__o211a_1 abstract view
.subckt sky130_fd_sc_hd__o211a_1 A1 A2 B1 C1 VGND VNB VPB VPWR X
.ends

* Black-box entry subcircuit for sky130_fd_sc_hd__inv_2 abstract view
.subckt sky130_fd_sc_hd__inv_2 A VGND VNB VPB VPWR Y
.ends

* Black-box entry subcircuit for sky130_fd_sc_hd__a221o_1 abstract view
.subckt sky130_fd_sc_hd__a221o_1 A1 A2 B1 B2 C1 VGND VNB VPB VPWR X
.ends

* Black-box entry subcircuit for sky130_fd_sc_hd__nor3_1 abstract view
.subckt sky130_fd_sc_hd__nor3_1 A B C VGND VNB VPB VPWR Y
.ends

* Black-box entry subcircuit for sky130_fd_sc_hd__o221a_1 abstract view
.subckt sky130_fd_sc_hd__o221a_1 A1 A2 B1 B2 C1 VGND VNB VPB VPWR X
.ends

* Black-box entry subcircuit for sky130_fd_sc_hd__clkbuf_16 abstract view
.subckt sky130_fd_sc_hd__clkbuf_16 A VGND VNB VPB VPWR X
.ends

* Black-box entry subcircuit for sky130_fd_sc_hd__and3_1 abstract view
.subckt sky130_fd_sc_hd__and3_1 A B C VGND VNB VPB VPWR X
.ends

* Black-box entry subcircuit for sky130_fd_sc_hd__or2b_1 abstract view
.subckt sky130_fd_sc_hd__or2b_1 A B_N VGND VNB VPB VPWR X
.ends

* Black-box entry subcircuit for sky130_fd_sc_hd__nor2_2 abstract view
.subckt sky130_fd_sc_hd__nor2_2 A B VGND VNB VPB VPWR Y
.ends

* Black-box entry subcircuit for sky130_fd_sc_hd__o221a_2 abstract view
.subckt sky130_fd_sc_hd__o221a_2 A1 A2 B1 B2 C1 VGND VNB VPB VPWR X
.ends

* Black-box entry subcircuit for sky130_fd_sc_hd__clkbuf_2 abstract view
.subckt sky130_fd_sc_hd__clkbuf_2 A VGND VNB VPB VPWR X
.ends

* Black-box entry subcircuit for sky130_fd_sc_hd__clkbuf_8 abstract view
.subckt sky130_fd_sc_hd__clkbuf_8 A VGND VNB VPB VPWR X
.ends

* Black-box entry subcircuit for sky130_fd_sc_hd__o22a_1 abstract view
.subckt sky130_fd_sc_hd__o22a_1 A1 A2 B1 B2 VGND VNB VPB VPWR X
.ends

* Black-box entry subcircuit for sky130_fd_sc_hd__o2bb2a_1 abstract view
.subckt sky130_fd_sc_hd__o2bb2a_1 A1_N A2_N B1 B2 VGND VNB VPB VPWR X
.ends

* Black-box entry subcircuit for sky130_fd_sc_hd__nor2_8 abstract view
.subckt sky130_fd_sc_hd__nor2_8 A B VGND VNB VPB VPWR Y
.ends

* Black-box entry subcircuit for sky130_fd_sc_hd__a2bb2o_1 abstract view
.subckt sky130_fd_sc_hd__a2bb2o_1 A1_N A2_N B1 B2 VGND VNB VPB VPWR X
.ends

* Black-box entry subcircuit for sky130_fd_sc_hd__dlymetal6s2s_1 abstract view
.subckt sky130_fd_sc_hd__dlymetal6s2s_1 A VGND VNB VPB VPWR X
.ends

* Black-box entry subcircuit for sky130_fd_sc_hd__or4bb_1 abstract view
.subckt sky130_fd_sc_hd__or4bb_1 A B C_N D_N VGND VNB VPB VPWR X
.ends

* Black-box entry subcircuit for sky130_fd_sc_hd__xnor2_1 abstract view
.subckt sky130_fd_sc_hd__xnor2_1 A B VGND VNB VPB VPWR Y
.ends

* Black-box entry subcircuit for sky130_fd_sc_hd__buf_1 abstract view
.subckt sky130_fd_sc_hd__buf_1 A VGND VNB VPB VPWR X
.ends

* Black-box entry subcircuit for sky130_fd_sc_hd__a41o_1 abstract view
.subckt sky130_fd_sc_hd__a41o_1 A1 A2 A3 A4 B1 VGND VNB VPB VPWR X
.ends

* Black-box entry subcircuit for sky130_fd_sc_hd__a21bo_1 abstract view
.subckt sky130_fd_sc_hd__a21bo_1 A1 A2 B1_N VGND VNB VPB VPWR X
.ends

* Black-box entry subcircuit for sky130_fd_sc_hd__o21ai_1 abstract view
.subckt sky130_fd_sc_hd__o21ai_1 A1 A2 B1 VGND VNB VPB VPWR Y
.ends

* Black-box entry subcircuit for sky130_fd_sc_hd__a21boi_1 abstract view
.subckt sky130_fd_sc_hd__a21boi_1 A1 A2 B1_N VGND VNB VPB VPWR Y
.ends

* Black-box entry subcircuit for sky130_fd_sc_hd__and4b_1 abstract view
.subckt sky130_fd_sc_hd__and4b_1 A_N B C D VGND VNB VPB VPWR X
.ends

* Black-box entry subcircuit for sky130_fd_sc_hd__nand2_4 abstract view
.subckt sky130_fd_sc_hd__nand2_4 A B VGND VNB VPB VPWR Y
.ends

* Black-box entry subcircuit for sky130_fd_sc_hd__or2_2 abstract view
.subckt sky130_fd_sc_hd__or2_2 A B VGND VNB VPB VPWR X
.ends

* Black-box entry subcircuit for sky130_fd_sc_hd__xor2_2 abstract view
.subckt sky130_fd_sc_hd__xor2_2 A B VGND VNB VPB VPWR X
.ends

* Black-box entry subcircuit for sky130_fd_sc_hd__clkinv_4 abstract view
.subckt sky130_fd_sc_hd__clkinv_4 A VGND VNB VPB VPWR Y
.ends

* Black-box entry subcircuit for sky130_fd_sc_hd__o211ai_2 abstract view
.subckt sky130_fd_sc_hd__o211ai_2 A1 A2 B1 C1 VGND VNB VPB VPWR Y
.ends

* Black-box entry subcircuit for sky130_fd_sc_hd__a211o_1 abstract view
.subckt sky130_fd_sc_hd__a211o_1 A1 A2 B1 C1 VGND VNB VPB VPWR X
.ends

* Black-box entry subcircuit for sky130_fd_sc_hd__or2_4 abstract view
.subckt sky130_fd_sc_hd__or2_4 A B VGND VNB VPB VPWR X
.ends

* Black-box entry subcircuit for sky130_fd_sc_hd__or3_1 abstract view
.subckt sky130_fd_sc_hd__or3_1 A B C VGND VNB VPB VPWR X
.ends

* Black-box entry subcircuit for sky130_fd_sc_hd__mux2_2 abstract view
.subckt sky130_fd_sc_hd__mux2_2 A0 A1 S VGND VNB VPB VPWR X
.ends

.subckt sequential_multiplier_16x16 VGND VPWR clk done mcand[0] mcand[10] mcand[11]
+ mcand[12] mcand[13] mcand[14] mcand[15] mcand[1] mcand[2] mcand[3] mcand[4] mcand[5]
+ mcand[6] mcand[7] mcand[8] mcand[9] mplier[0] mplier[10] mplier[11] mplier[12] mplier[13]
+ mplier[14] mplier[15] mplier[1] mplier[2] mplier[3] mplier[4] mplier[5] mplier[6]
+ mplier[7] mplier[8] mplier[9] product[0] product[10] product[11] product[12] product[13]
+ product[14] product[15] product[16] product[17] product[18] product[19] product[1]
+ product[20] product[21] product[22] product[23] product[24] product[25] product[26]
+ product[27] product[28] product[29] product[2] product[30] product[31] product[3]
+ product[4] product[5] product[6] product[7] product[8] product[9] st
XFILLER_0_27_93 VGND VPWR VPWR VGND sky130_ef_sc_hd__decap_12
XFILLER_0_76_177 VGND VPWR VPWR VGND sky130_ef_sc_hd__decap_12
XFILLER_0_76_133 VGND VGND VPWR VPWR sky130_fd_sc_hd__decap_6
XTAP_TAPCELL_ROW_65_776 VGND VPWR sky130_fd_sc_hd__tapvpwrvgnd_1
XFILLER_0_57_380 VGND VPWR VPWR VGND sky130_ef_sc_hd__decap_12
XFILLER_0_43_81 VGND VPWR VPWR VGND sky130_ef_sc_hd__decap_12
XFILLER_0_60_501 VGND VGND VPWR VPWR sky130_fd_sc_hd__fill_2
XFILLER_0_7_81 VGND VPWR VPWR VGND sky130_ef_sc_hd__decap_12
XFILLER_0_13_461 VGND VPWR VPWR VGND sky130_ef_sc_hd__decap_12
XTAP_TAPCELL_ROW_20_367 VGND VPWR sky130_fd_sc_hd__tapvpwrvgnd_1
X_432_ _208_ VGND VGND VPWR VPWR _023_ sky130_fd_sc_hd__clkbuf_1
X_501_ clknet_2_3__leaf_clk _022_ VGND VGND VPWR VPWR net60 sky130_fd_sc_hd__dfxtp_2
XFILLER_0_67_111 VGND VGND VPWR VPWR sky130_fd_sc_hd__fill_1
XFILLER_0_70_309 VGND VPWR VPWR VGND sky130_ef_sc_hd__decap_12
XFILLER_0_63_361 VGND VPWR VPWR VGND sky130_ef_sc_hd__decap_12
X_294_ net47 net11 VGND VGND VPWR VPWR _088_ sky130_fd_sc_hd__nor2_1
XFILLER_0_55_328 VGND VGND VPWR VPWR sky130_fd_sc_hd__decap_8
X_363_ net54 net3 VGND VGND VPWR VPWR _150_ sky130_fd_sc_hd__xor2_1
XFILLER_0_23_225 VGND VPWR VPWR VGND sky130_ef_sc_hd__decap_12
XFILLER_0_48_15 VGND VPWR VPWR VGND sky130_ef_sc_hd__decap_12
XFILLER_0_3_39 VGND VPWR VPWR VGND sky130_ef_sc_hd__decap_12
XFILLER_0_86_475 VGND VGND VPWR VPWR sky130_fd_sc_hd__fill_1
XFILLER_0_73_169 VGND VPWR VPWR VGND sky130_ef_sc_hd__decap_12
XFILLER_0_73_125 VGND VPWR VPWR VGND sky130_ef_sc_hd__decap_12
XTAP_TAPCELL_ROW_62_746 VGND VPWR sky130_fd_sc_hd__tapvpwrvgnd_1
XFILLER_0_58_177 VGND VPWR VPWR VGND sky130_ef_sc_hd__decap_12
XFILLER_0_58_133 VGND VGND VPWR VPWR sky130_fd_sc_hd__decap_6
XFILLER_0_46_306 VGND VGND VPWR VPWR sky130_fd_sc_hd__fill_2
XFILLER_0_39_380 VGND VPWR VPWR VGND sky130_ef_sc_hd__decap_12
XFILLER_0_13_51 VGND VGND VPWR VPWR sky130_fd_sc_hd__decap_4
XFILLER_0_6_469 VGND VGND VPWR VPWR sky130_fd_sc_hd__decap_6
XFILLER_0_10_475 VGND VGND VPWR VPWR sky130_fd_sc_hd__fill_1
XTAP_TAPCELL_ROW_78_890 VGND VPWR sky130_fd_sc_hd__tapvpwrvgnd_1
XFILLER_0_49_111 VGND VGND VPWR VPWR sky130_fd_sc_hd__fill_1
XTAP_TAPCELL_ROW_25_415 VGND VPWR sky130_fd_sc_hd__tapvpwrvgnd_1
XFILLER_0_77_497 VGND VGND VPWR VPWR sky130_fd_sc_hd__decap_6
XFILLER_0_52_309 VGND VPWR VPWR VGND sky130_ef_sc_hd__decap_12
XFILLER_0_45_361 VGND VPWR VPWR VGND sky130_ef_sc_hd__decap_12
XFILLER_0_33_501 VGND VGND VPWR VPWR sky130_fd_sc_hd__decap_3
XTAP_TAPCELL_ROW_33_481 VGND VPWR sky130_fd_sc_hd__tapvpwrvgnd_1
XFILLER_0_18_29 VGND VPWR VPWR VGND sky130_ef_sc_hd__decap_12
XFILLER_0_68_475 VGND VGND VPWR VPWR sky130_fd_sc_hd__fill_1
X_346_ net52 net16 VGND VGND VPWR VPWR _135_ sky130_fd_sc_hd__xor2_1
XFILLER_0_55_125 VGND VPWR VPWR VGND sky130_ef_sc_hd__decap_12
XFILLER_0_50_27 VGND VGND VPWR VPWR sky130_fd_sc_hd__fill_1
X_415_ _050_ _189_ _196_ _045_ acu_act\[32\] VGND VGND VPWR VPWR _197_ sky130_fd_sc_hd__a32o_1
XFILLER_0_70_139 VGND VGND VPWR VPWR sky130_fd_sc_hd__fill_1
XFILLER_0_55_169 VGND VPWR VPWR VGND sky130_ef_sc_hd__decap_12
X_277_ _069_ _072_ VGND VGND VPWR VPWR _073_ sky130_fd_sc_hd__or2_1
XFILLER_0_24_501 VGND VPWR VPWR VGND sky130_ef_sc_hd__decap_12
XFILLER_0_3_417 VGND VPWR VPWR VGND sky130_ef_sc_hd__decap_12
XFILLER_0_11_217 VGND VGND VPWR VPWR sky130_fd_sc_hd__decap_6
XFILLER_0_75_57 VGND VPWR VPWR VGND sky130_ef_sc_hd__decap_12
XFILLER_0_59_69 VGND VPWR VPWR VGND sky130_ef_sc_hd__decap_12
XTAP_TAPCELL_ROW_75_860 VGND VPWR sky130_fd_sc_hd__tapvpwrvgnd_1
XFILLER_0_74_489 VGND VPWR VPWR VGND sky130_ef_sc_hd__decap_12
XFILLER_0_74_445 VGND VPWR VPWR VGND sky130_ef_sc_hd__decap_12
XFILLER_0_74_401 VGND VPWR VPWR VGND sky130_ef_sc_hd__decap_12
XFILLER_0_59_497 VGND VGND VPWR VPWR sky130_fd_sc_hd__decap_6
XFILLER_0_34_309 VGND VPWR VPWR VGND sky130_ef_sc_hd__decap_12
XFILLER_0_24_83 VGND VGND VPWR VPWR sky130_fd_sc_hd__fill_1
XFILLER_0_6_233 VGND VPWR VPWR VGND sky130_ef_sc_hd__decap_12
XFILLER_0_6_277 VGND VPWR VPWR VGND sky130_ef_sc_hd__decap_12
XFILLER_0_42_397 VGND VGND VPWR VPWR sky130_fd_sc_hd__decap_8
XFILLER_0_69_217 VGND VGND VPWR VPWR sky130_fd_sc_hd__decap_6
XFILLER_0_84_209 VGND VPWR VPWR VGND sky130_ef_sc_hd__decap_12
XFILLER_0_77_261 VGND VPWR VPWR VGND sky130_ef_sc_hd__decap_12
XFILLER_0_37_125 VGND VPWR VPWR VGND sky130_ef_sc_hd__decap_12
XFILLER_0_52_139 VGND VGND VPWR VPWR sky130_fd_sc_hd__fill_1
XFILLER_0_37_169 VGND VPWR VPWR VGND sky130_ef_sc_hd__decap_12
XFILLER_0_61_15 VGND VPWR VPWR VGND sky130_ef_sc_hd__decap_12
XFILLER_0_45_27 VGND VPWR VPWR VGND sky130_ef_sc_hd__decap_12
XFILLER_0_0_29 VGND VPWR VPWR VGND sky130_ef_sc_hd__decap_12
XFILLER_0_56_489 VGND VPWR VPWR VGND sky130_ef_sc_hd__decap_12
XFILLER_0_56_445 VGND VPWR VPWR VGND sky130_ef_sc_hd__decap_12
X_329_ _061_ _119_ VGND VGND VPWR VPWR _120_ sky130_fd_sc_hd__and2_1
XTAP_TAPCELL_ROW_44_587 VGND VPWR sky130_fd_sc_hd__tapvpwrvgnd_1
XFILLER_0_9_27 VGND VPWR VPWR VGND sky130_ef_sc_hd__decap_12
XFILLER_0_16_309 VGND VPWR VPWR VGND sky130_ef_sc_hd__decap_12
XFILLER_0_3_225 VGND VPWR VPWR VGND sky130_ef_sc_hd__decap_12
XFILLER_0_10_41 VGND VPWR VPWR VGND sky130_ef_sc_hd__decap_12
XFILLER_0_10_85 VGND VPWR VPWR VGND sky130_ef_sc_hd__decap_12
XFILLER_0_86_89 VGND VGND VPWR VPWR sky130_fd_sc_hd__fill_1
XFILLER_0_36_6 VGND VPWR VPWR VGND sky130_ef_sc_hd__decap_12
XFILLER_0_66_209 VGND VPWR VPWR VGND sky130_ef_sc_hd__decap_12
XFILLER_0_59_250 VGND VGND VPWR VPWR sky130_fd_sc_hd__decap_3
XFILLER_0_47_445 VGND VGND VPWR VPWR sky130_fd_sc_hd__decap_3
XFILLER_0_47_401 VGND VGND VPWR VPWR sky130_fd_sc_hd__decap_3
XFILLER_0_35_93 VGND VPWR VPWR VGND sky130_ef_sc_hd__decap_12
XFILLER_0_19_125 VGND VPWR VPWR VGND sky130_ef_sc_hd__decap_12
XFILLER_0_74_253 VGND VPWR VPWR VGND sky130_ef_sc_hd__decap_12
XFILLER_0_51_81 VGND VPWR VPWR VGND sky130_ef_sc_hd__decap_12
XFILLER_0_34_139 VGND VGND VPWR VPWR sky130_fd_sc_hd__fill_1
XFILLER_0_19_169 VGND VPWR VPWR VGND sky130_ef_sc_hd__decap_12
XFILLER_0_30_389 VGND VPWR VPWR VGND sky130_ef_sc_hd__decap_12
XTAP_TAPCELL_ROW_7_246 VGND VPWR sky130_fd_sc_hd__tapvpwrvgnd_1
XTAP_TAPCELL_ROW_86_966 VGND VPWR sky130_fd_sc_hd__tapvpwrvgnd_1
XTAP_TAPCELL_ROW_41_557 VGND VPWR sky130_fd_sc_hd__tapvpwrvgnd_1
XFILLER_0_38_489 VGND VPWR VPWR VGND sky130_ef_sc_hd__decap_12
XFILLER_0_38_467 VGND VGND VPWR VPWR sky130_fd_sc_hd__decap_8
XFILLER_0_38_434 VGND VGND VPWR VPWR sky130_fd_sc_hd__fill_2
XFILLER_0_80_289 VGND VPWR VPWR VGND sky130_ef_sc_hd__decap_12
XFILLER_0_80_245 VGND VGND VPWR VPWR sky130_fd_sc_hd__decap_6
XFILLER_0_40_109 VGND VPWR VPWR VGND sky130_ef_sc_hd__decap_12
XFILLER_0_33_161 VGND VGND VPWR VPWR sky130_fd_sc_hd__decap_6
XFILLER_0_56_15 VGND VPWR VPWR VGND sky130_ef_sc_hd__decap_12
XTAP_TAPCELL_ROW_49_624 VGND VPWR sky130_fd_sc_hd__tapvpwrvgnd_1
XFILLER_0_71_223 VGND VGND VPWR VPWR sky130_fd_sc_hd__fill_1
XFILLER_0_56_253 VGND VPWR VPWR VGND sky130_ef_sc_hd__decap_12
XFILLER_0_4_501 VGND VPWR VPWR VGND sky130_ef_sc_hd__decap_12
XTAP_TAPCELL_ROW_12_292 VGND VPWR sky130_fd_sc_hd__tapvpwrvgnd_1
XFILLER_0_12_301 VGND VGND VPWR VPWR sky130_fd_sc_hd__decap_6
XFILLER_0_16_139 VGND VGND VPWR VPWR sky130_fd_sc_hd__fill_1
XFILLER_0_21_51 VGND VGND VPWR VPWR sky130_fd_sc_hd__decap_4
XFILLER_0_12_345 VGND VPWR VPWR VGND sky130_ef_sc_hd__decap_12
XFILLER_0_12_389 VGND VPWR VPWR VGND sky130_ef_sc_hd__decap_12
XTAP_TAPCELL_ROW_83_936 VGND VPWR sky130_fd_sc_hd__tapvpwrvgnd_1
XFILLER_0_34_3 VGND VPWR VPWR VGND sky130_ef_sc_hd__decap_12
XTAP_TAPCELL_ROW_4_227 VGND VPWR sky130_fd_sc_hd__tapvpwrvgnd_1
XFILLER_0_62_245 VGND VGND VPWR VPWR sky130_fd_sc_hd__decap_6
XFILLER_0_30_153 VGND VPWR VPWR VGND sky130_ef_sc_hd__decap_12
XFILLER_0_7_361 VGND VPWR VPWR VGND sky130_ef_sc_hd__decap_12
XFILLER_0_15_161 VGND VGND VPWR VPWR sky130_fd_sc_hd__decap_6
XFILLER_0_22_109 VGND VPWR VPWR VGND sky130_ef_sc_hd__decap_12
XFILLER_0_30_197 VGND VPWR VPWR VGND sky130_ef_sc_hd__decap_12
XFILLER_0_30_186 VGND VGND VPWR VPWR sky130_fd_sc_hd__decap_8
XFILLER_0_26_29 VGND VPWR VPWR VGND sky130_ef_sc_hd__decap_12
XFILLER_0_85_337 VGND VPWR VPWR VGND sky130_ef_sc_hd__decap_12
XTAP_TAPCELL_ROW_54_671 VGND VPWR sky130_fd_sc_hd__tapvpwrvgnd_1
XTAP_TAPCELL_ROW_46_605 VGND VPWR sky130_fd_sc_hd__tapvpwrvgnd_1
XFILLER_0_53_289 VGND VGND VPWR VPWR sky130_fd_sc_hd__fill_2
XFILLER_0_53_223 VGND VGND VPWR VPWR sky130_fd_sc_hd__fill_1
XFILLER_0_38_253 VGND VPWR VPWR VGND sky130_ef_sc_hd__decap_12
XFILLER_0_38_242 VGND VGND VPWR VPWR sky130_fd_sc_hd__decap_8
XFILLER_0_67_69 VGND VPWR VPWR VGND sky130_ef_sc_hd__decap_12
XANTENNA_5 net55 VGND VGND VPWR VPWR sky130_fd_sc_hd__diode_2
XFILLER_0_83_57 VGND VPWR VPWR VGND sky130_ef_sc_hd__decap_12
XTAP_TAPCELL_ROW_80_906 VGND VPWR sky130_fd_sc_hd__tapvpwrvgnd_1
XFILLER_0_32_50 VGND VPWR VPWR VGND sky130_ef_sc_hd__decap_12
XTAP_TAPCELL_ROW_17_340 VGND VPWR sky130_fd_sc_hd__tapvpwrvgnd_1
XFILLER_0_44_245 VGND VGND VPWR VPWR sky130_fd_sc_hd__decap_6
XFILLER_0_40_473 VGND VGND VPWR VPWR sky130_fd_sc_hd__decap_3
XFILLER_0_12_153 VGND VPWR VPWR VGND sky130_ef_sc_hd__decap_12
XFILLER_0_12_197 VGND VPWR VPWR VGND sky130_ef_sc_hd__decap_12
XTAP_TAPCELL_ROW_68_796 VGND VPWR sky130_fd_sc_hd__tapvpwrvgnd_1
XFILLER_0_67_337 VGND VPWR VPWR VGND sky130_ef_sc_hd__decap_12
XFILLER_0_82_307 VGND VGND VPWR VPWR sky130_fd_sc_hd__fill_1
XTAP_TAPCELL_ROW_23_398 VGND VPWR sky130_fd_sc_hd__tapvpwrvgnd_1
XFILLER_0_23_429 VGND VPWR VPWR VGND sky130_ef_sc_hd__decap_12
Xoutput42 net42 VGND VGND VPWR VPWR product[16] sky130_fd_sc_hd__clkbuf_4
Xoutput53 net53 VGND VGND VPWR VPWR product[26] sky130_fd_sc_hd__clkbuf_4
XFILLER_0_31_473 VGND VPWR VPWR VGND sky130_ef_sc_hd__decap_12
Xoutput64 net64 VGND VGND VPWR VPWR product[7] sky130_fd_sc_hd__clkbuf_4
XFILLER_0_53_27 VGND VPWR VPWR VGND sky130_ef_sc_hd__decap_12
XFILLER_0_37_39 VGND VPWR VPWR VGND sky130_ef_sc_hd__decap_12
XFILLER_0_85_167 VGND VGND VPWR VPWR sky130_fd_sc_hd__fill_1
XFILLER_0_73_329 VGND VGND VPWR VPWR sky130_fd_sc_hd__decap_6
XTAP_TAPCELL_ROW_14_310 VGND VPWR sky130_fd_sc_hd__tapvpwrvgnd_1
XFILLER_0_41_237 VGND VPWR VPWR VGND sky130_ef_sc_hd__decap_12
XFILLER_0_49_337 VGND VGND VPWR VPWR sky130_fd_sc_hd__fill_2
XFILLER_0_76_189 VGND VGND VPWR VPWR sky130_fd_sc_hd__decap_6
XFILLER_0_64_307 VGND VGND VPWR VPWR sky130_fd_sc_hd__fill_1
XFILLER_0_43_93 VGND VPWR VPWR VGND sky130_ef_sc_hd__decap_12
XFILLER_0_17_223 VGND VGND VPWR VPWR sky130_fd_sc_hd__fill_1
XFILLER_0_7_93 VGND VPWR VPWR VGND sky130_ef_sc_hd__decap_12
XFILLER_0_13_473 VGND VPWR VPWR VGND sky130_ef_sc_hd__decap_12
XTAP_TAPCELL_ROW_20_368 VGND VPWR sky130_fd_sc_hd__tapvpwrvgnd_1
X_500_ clknet_2_0__leaf_clk _021_ VGND VGND VPWR VPWR net57 sky130_fd_sc_hd__dfxtp_1
X_431_ net61 _207_ _000_ VGND VGND VPWR VPWR _208_ sky130_fd_sc_hd__mux2_1
XFILLER_0_67_167 VGND VGND VPWR VPWR sky130_fd_sc_hd__fill_1
X_362_ _149_ VGND VGND VPWR VPWR _012_ sky130_fd_sc_hd__clkbuf_1
XTAP_TAPCELL_ROW_28_435 VGND VPWR sky130_fd_sc_hd__tapvpwrvgnd_1
XFILLER_0_63_373 VGND VPWR VPWR VGND sky130_ef_sc_hd__decap_12
X_293_ net47 net11 VGND VGND VPWR VPWR _087_ sky130_fd_sc_hd__and2_1
XFILLER_0_23_237 VGND VPWR VPWR VGND sky130_ef_sc_hd__decap_12
XFILLER_0_2_109 VGND VPWR VPWR VGND sky130_ef_sc_hd__decap_12
XFILLER_0_48_27 VGND VGND VPWR VPWR sky130_fd_sc_hd__fill_1
XFILLER_0_31_281 VGND VGND VPWR VPWR sky130_fd_sc_hd__decap_4
XFILLER_0_64_15 VGND VPWR VPWR VGND sky130_ef_sc_hd__decap_12
XFILLER_0_73_137 VGND VPWR VPWR VGND sky130_ef_sc_hd__decap_12
XTAP_TAPCELL_ROW_62_747 VGND VPWR sky130_fd_sc_hd__tapvpwrvgnd_1
XFILLER_0_58_189 VGND VGND VPWR VPWR sky130_fd_sc_hd__decap_6
XFILLER_0_54_351 VGND VPWR VPWR VGND sky130_ef_sc_hd__decap_12
XFILLER_0_81_181 VGND VPWR VPWR VGND sky130_ef_sc_hd__decap_12
XFILLER_0_10_421 VGND VPWR VPWR VGND sky130_ef_sc_hd__decap_12
XTAP_TAPCELL_ROW_78_891 VGND VPWR sky130_fd_sc_hd__tapvpwrvgnd_1
XFILLER_0_49_167 VGND VGND VPWR VPWR sky130_fd_sc_hd__fill_1
XTAP_TAPCELL_ROW_25_416 VGND VPWR sky130_fd_sc_hd__tapvpwrvgnd_1
XFILLER_0_60_365 VGND VPWR VPWR VGND sky130_ef_sc_hd__decap_12
XFILLER_0_45_373 VGND VPWR VPWR VGND sky130_ef_sc_hd__decap_12
XTAP_TAPCELL_ROW_33_482 VGND VPWR sky130_fd_sc_hd__tapvpwrvgnd_1
XFILLER_0_13_281 VGND VPWR VPWR VGND sky130_ef_sc_hd__decap_12
XFILLER_0_68_421 VGND VPWR VPWR VGND sky130_ef_sc_hd__decap_12
XFILLER_0_34_29 VGND VPWR VPWR VGND sky130_ef_sc_hd__decap_12
X_345_ _134_ VGND VGND VPWR VPWR _010_ sky130_fd_sc_hd__clkbuf_1
XFILLER_0_55_137 VGND VPWR VPWR VGND sky130_ef_sc_hd__decap_12
X_276_ _070_ _071_ VGND VGND VPWR VPWR _072_ sky130_fd_sc_hd__nor2_1
X_414_ _180_ _183_ _190_ VGND VGND VPWR VPWR _196_ sky130_fd_sc_hd__or3b_1
XFILLER_0_63_181 VGND VPWR VPWR VGND sky130_ef_sc_hd__decap_12
XFILLER_0_3_429 VGND VPWR VPWR VGND sky130_ef_sc_hd__decap_12
XFILLER_0_75_69 VGND VPWR VPWR VGND sky130_ef_sc_hd__decap_12
XFILLER_0_86_251 VGND VGND VPWR VPWR sky130_fd_sc_hd__fill_1
XTAP_TAPCELL_ROW_75_861 VGND VPWR sky130_fd_sc_hd__tapvpwrvgnd_1
XFILLER_0_74_413 VGND VGND VPWR VPWR sky130_fd_sc_hd__decap_6
XFILLER_0_74_457 VGND VPWR VPWR VGND sky130_ef_sc_hd__decap_12
XFILLER_0_54_192 VGND VGND VPWR VPWR sky130_fd_sc_hd__decap_4
XFILLER_0_54_181 VGND VGND VPWR VPWR sky130_fd_sc_hd__fill_1
XFILLER_0_42_365 VGND VGND VPWR VPWR sky130_fd_sc_hd__fill_1
XFILLER_0_42_321 VGND VPWR VPWR VGND sky130_ef_sc_hd__decap_12
XFILLER_0_6_245 VGND VGND VPWR VPWR sky130_fd_sc_hd__decap_6
XFILLER_0_6_289 VGND VPWR VPWR VGND sky130_ef_sc_hd__decap_12
XFILLER_0_64_3 VGND VPWR VPWR VGND sky130_ef_sc_hd__decap_12
XFILLER_0_49_81 VGND VPWR VPWR VGND sky130_ef_sc_hd__decap_12
XFILLER_0_10_251 VGND VGND VPWR VPWR sky130_fd_sc_hd__fill_1
XPHY_EDGE_ROW_12_Right_12 VGND VGND VPWR VPWR sky130_fd_sc_hd__decap_3
XTAP_TAPCELL_ROW_38_530 VGND VPWR sky130_fd_sc_hd__tapvpwrvgnd_1
XFILLER_0_4_83 VGND VGND VPWR VPWR sky130_fd_sc_hd__fill_1
XPHY_EDGE_ROW_21_Right_21 VGND VGND VPWR VPWR sky130_fd_sc_hd__decap_3
XFILLER_0_77_273 VGND VGND VPWR VPWR sky130_fd_sc_hd__decap_6
XFILLER_0_37_137 VGND VPWR VPWR VGND sky130_ef_sc_hd__decap_12
XFILLER_0_18_351 VGND VPWR VPWR VGND sky130_ef_sc_hd__decap_12
XFILLER_0_60_195 VGND VGND VPWR VPWR sky130_fd_sc_hd__fill_1
XFILLER_0_60_173 VGND VGND VPWR VPWR sky130_fd_sc_hd__fill_1
XPHY_EDGE_ROW_30_Right_30 VGND VGND VPWR VPWR sky130_fd_sc_hd__decap_3
XFILLER_0_21_505 VGND VGND VPWR VPWR sky130_fd_sc_hd__decap_8
XTAP_TAPCELL_ROW_72_831 VGND VPWR sky130_fd_sc_hd__tapvpwrvgnd_1
XFILLER_0_68_251 VGND VGND VPWR VPWR sky130_fd_sc_hd__fill_1
XFILLER_0_61_27 VGND VPWR VPWR VGND sky130_ef_sc_hd__decap_12
XFILLER_0_45_39 VGND VPWR VPWR VGND sky130_ef_sc_hd__decap_12
XPHY_EDGE_ROW_14_Left_101 VGND VGND VPWR VPWR sky130_fd_sc_hd__decap_3
XFILLER_0_71_449 VGND VPWR VPWR VGND sky130_ef_sc_hd__decap_12
XFILLER_0_71_405 VGND VPWR VPWR VGND sky130_ef_sc_hd__decap_12
XFILLER_0_56_457 VGND VPWR VPWR VGND sky130_ef_sc_hd__decap_12
X_259_ _056_ VGND VGND VPWR VPWR _057_ sky130_fd_sc_hd__buf_4
X_328_ net50 _118_ _057_ VGND VGND VPWR VPWR _119_ sky130_fd_sc_hd__mux2_1
XFILLER_0_24_321 VGND VPWR VPWR VGND sky130_ef_sc_hd__decap_12
XFILLER_0_9_39 VGND VPWR VPWR VGND sky130_ef_sc_hd__decap_12
XFILLER_0_86_57 VGND VGND VPWR VPWR sky130_fd_sc_hd__fill_2
XFILLER_0_24_365 VGND VPWR VPWR VGND sky130_ef_sc_hd__decap_12
XPHY_EDGE_ROW_23_Left_110 VGND VGND VPWR VPWR sky130_fd_sc_hd__decap_3
XFILLER_0_3_237 VGND VPWR VPWR VGND sky130_ef_sc_hd__decap_12
XFILLER_0_10_53 VGND VPWR VPWR VGND sky130_ef_sc_hd__decap_12
XFILLER_0_10_97 VGND VPWR VPWR VGND sky130_ef_sc_hd__decap_12
XFILLER_0_79_505 VGND VGND VPWR VPWR sky130_fd_sc_hd__decap_8
XFILLER_0_74_265 VGND VPWR VPWR VGND sky130_ef_sc_hd__decap_12
XFILLER_0_74_221 VGND VPWR VPWR VGND sky130_ef_sc_hd__decap_12
XTAP_TAPCELL_ROW_35_500 VGND VPWR sky130_fd_sc_hd__tapvpwrvgnd_1
XFILLER_0_19_137 VGND VPWR VPWR VGND sky130_ef_sc_hd__decap_12
XFILLER_0_51_93 VGND VPWR VPWR VGND sky130_ef_sc_hd__decap_12
XFILLER_0_42_195 VGND VGND VPWR VPWR sky130_fd_sc_hd__fill_1
XFILLER_0_27_181 VGND VPWR VPWR VGND sky130_ef_sc_hd__decap_12
XTAP_TAPCELL_ROW_7_247 VGND VPWR sky130_fd_sc_hd__tapvpwrvgnd_1
XTAP_TAPCELL_ROW_86_967 VGND VPWR sky130_fd_sc_hd__tapvpwrvgnd_1
XFILLER_0_53_449 VGND VPWR VPWR VGND sky130_ef_sc_hd__decap_12
XFILLER_0_53_405 VGND VPWR VPWR VGND sky130_ef_sc_hd__decap_12
XTAP_TAPCELL_ROW_41_558 VGND VPWR sky130_fd_sc_hd__tapvpwrvgnd_1
XFILLER_0_38_424 VGND VGND VPWR VPWR sky130_fd_sc_hd__decap_6
XFILLER_0_21_335 VGND VGND VPWR VPWR sky130_fd_sc_hd__fill_1
XFILLER_0_72_15 VGND VPWR VPWR VGND sky130_ef_sc_hd__decap_12
XFILLER_0_56_27 VGND VGND VPWR VPWR sky130_fd_sc_hd__fill_1
XTAP_TAPCELL_ROW_49_625 VGND VPWR sky130_fd_sc_hd__tapvpwrvgnd_1
XFILLER_0_56_265 VGND VPWR VPWR VGND sky130_ef_sc_hd__decap_12
XFILLER_0_56_221 VGND VGND VPWR VPWR sky130_fd_sc_hd__fill_1
XFILLER_0_8_307 VGND VGND VPWR VPWR sky130_fd_sc_hd__fill_1
XFILLER_0_71_279 VGND VGND VPWR VPWR sky130_fd_sc_hd__fill_1
XFILLER_0_52_471 VGND VGND VPWR VPWR sky130_fd_sc_hd__decap_4
XTAP_TAPCELL_ROW_12_293 VGND VPWR sky130_fd_sc_hd__tapvpwrvgnd_1
XFILLER_0_12_357 VGND VGND VPWR VPWR sky130_fd_sc_hd__decap_6
XFILLER_0_20_390 VGND VPWR VPWR VGND sky130_ef_sc_hd__decap_12
XTAP_TAPCELL_ROW_83_937 VGND VPWR sky130_fd_sc_hd__tapvpwrvgnd_1
XFILLER_0_79_335 VGND VGND VPWR VPWR sky130_fd_sc_hd__fill_1
XFILLER_0_27_3 VGND VGND VPWR VPWR sky130_fd_sc_hd__decap_8
XFILLER_0_35_449 VGND VPWR VPWR VGND sky130_ef_sc_hd__decap_12
XFILLER_0_7_373 VGND VPWR VPWR VGND sky130_ef_sc_hd__decap_12
XFILLER_0_30_165 VGND VGND VPWR VPWR sky130_fd_sc_hd__decap_4
XFILLER_0_30_121 VGND VPWR VPWR VGND sky130_ef_sc_hd__decap_12
XFILLER_0_85_349 VGND VPWR VPWR VGND sky130_ef_sc_hd__decap_12
XFILLER_0_85_305 VGND VPWR VPWR VGND sky130_ef_sc_hd__decap_12
XTAP_TAPCELL_ROW_54_672 VGND VPWR sky130_fd_sc_hd__tapvpwrvgnd_1
XFILLER_0_42_29 VGND VPWR VPWR VGND sky130_ef_sc_hd__decap_12
XFILLER_0_38_265 VGND VPWR VPWR VGND sky130_ef_sc_hd__decap_12
XANTENNA_6 net66 VGND VGND VPWR VPWR sky130_fd_sc_hd__diode_2
XFILLER_0_53_279 VGND VGND VPWR VPWR sky130_fd_sc_hd__fill_1
XFILLER_0_1_505 VGND VGND VPWR VPWR sky130_fd_sc_hd__fill_2
XPHY_EDGE_ROW_7_Left_94 VGND VGND VPWR VPWR sky130_fd_sc_hd__decap_3
XFILLER_0_67_15 VGND VPWR VPWR VGND sky130_ef_sc_hd__decap_12
XFILLER_0_6_29 VGND VPWR VPWR VGND sky130_ef_sc_hd__decap_12
XFILLER_0_83_69 VGND VPWR VPWR VGND sky130_ef_sc_hd__decap_12
XTAP_TAPCELL_ROW_80_907 VGND VPWR sky130_fd_sc_hd__tapvpwrvgnd_1
XFILLER_0_16_41 VGND VPWR VPWR VGND sky130_ef_sc_hd__decap_12
XFILLER_0_16_85 VGND VPWR VPWR VGND sky130_ef_sc_hd__decap_12
XFILLER_0_32_62 VGND VPWR VPWR VGND sky130_ef_sc_hd__decap_12
XTAP_TAPCELL_ROW_17_341 VGND VPWR sky130_fd_sc_hd__tapvpwrvgnd_1
XFILLER_0_17_405 VGND VPWR VPWR VGND sky130_ef_sc_hd__decap_12
XFILLER_0_17_449 VGND VPWR VPWR VGND sky130_ef_sc_hd__decap_12
XFILLER_0_40_496 VGND VPWR VPWR VGND sky130_ef_sc_hd__decap_12
XFILLER_0_40_441 VGND VPWR VPWR VGND sky130_ef_sc_hd__decap_12
XFILLER_0_32_419 VGND VGND VPWR VPWR sky130_fd_sc_hd__fill_1
XFILLER_0_4_365 VGND VPWR VPWR VGND sky130_ef_sc_hd__decap_12
XFILLER_0_4_321 VGND VPWR VPWR VGND sky130_ef_sc_hd__decap_12
XPHY_EDGE_ROW_6_Right_6 VGND VGND VPWR VPWR sky130_fd_sc_hd__decap_3
XFILLER_0_12_121 VGND VPWR VPWR VGND sky130_ef_sc_hd__decap_12
XFILLER_0_12_165 VGND VPWR VPWR VGND sky130_ef_sc_hd__decap_12
XFILLER_0_57_81 VGND VPWR VPWR VGND sky130_ef_sc_hd__decap_12
XTAP_TAPCELL_ROW_68_797 VGND VPWR sky130_fd_sc_hd__tapvpwrvgnd_1
XFILLER_0_67_349 VGND VPWR VPWR VGND sky130_ef_sc_hd__decap_12
XFILLER_0_67_305 VGND VPWR VPWR VGND sky130_ef_sc_hd__decap_12
XFILLER_0_75_393 VGND VPWR VPWR VGND sky130_ef_sc_hd__decap_12
XTAP_TAPCELL_ROW_51_642 VGND VPWR sky130_fd_sc_hd__tapvpwrvgnd_1
XFILLER_0_35_279 VGND VGND VPWR VPWR sky130_fd_sc_hd__fill_1
XFILLER_0_7_181 VGND VPWR VPWR VGND sky130_ef_sc_hd__decap_12
Xoutput43 net43 VGND VGND VPWR VPWR product[17] sky130_fd_sc_hd__clkbuf_4
Xoutput54 net54 VGND VGND VPWR VPWR product[27] sky130_fd_sc_hd__clkbuf_4
XFILLER_0_31_485 VGND VPWR VPWR VGND sky130_ef_sc_hd__decap_12