*SPEF "ieee 1481-1999"
*DESIGN "sequential_multiplier_16x16"
*DATE "11:11:11 Fri 11 11, 1111"
*VENDOR "OpenRCX"
*PROGRAM "Parallel Extraction"
*VERSION "1.0"
*DESIGN_FLOW "NAME_SCOPE LOCAL" "PIN_CAP NONE"
*DIVIDER /
*DELIMITER :
*BUS_DELIMITER []
*T_UNIT 1 NS
*C_UNIT 1 PF
*R_UNIT 1 OHM
*L_UNIT 1 HENRY

*NAME_MAP
*3 clk
*4 done
*5 mcand[0]
*6 mcand[10]
*7 mcand[11]
*8 mcand[12]
*9 mcand[13]
*10 mcand[14]
*11 mcand[15]
*12 mcand[1]
*13 mcand[2]
*14 mcand[3]
*15 mcand[4]
*16 mcand[5]
*17 mcand[6]
*18 mcand[7]
*19 mcand[8]
*20 mcand[9]
*21 mplier[0]
*22 mplier[10]
*23 mplier[11]
*24 mplier[12]
*25 mplier[13]
*26 mplier[14]
*27 mplier[15]
*28 mplier[1]
*29 mplier[2]
*30 mplier[3]
*31 mplier[4]
*32 mplier[5]
*33 mplier[6]
*34 mplier[7]
*35 mplier[8]
*36 mplier[9]
*37 product[0]
*38 product[10]
*39 product[11]
*40 product[12]
*41 product[13]
*42 product[14]
*43 product[15]
*44 product[16]
*45 product[17]
*46 product[18]
*47 product[19]
*48 product[1]
*49 product[20]
*50 product[21]
*51 product[22]
*52 product[23]
*53 product[24]
*54 product[25]
*55 product[26]
*56 product[27]
*57 product[28]
*58 product[29]
*59 product[2]
*60 product[30]
*61 product[31]
*62 product[3]
*63 product[4]
*64 product[5]
*65 product[6]
*66 product[7]
*67 product[8]
*68 product[9]
*69 st
*70 _000_
*71 _001_
*72 _002_
*73 _003_
*74 _004_
*75 _005_
*76 _006_
*77 _007_
*78 _008_
*79 _009_
*80 _010_
*81 _011_
*82 _012_
*83 _013_
*84 _014_
*85 _015_
*86 _016_
*87 _017_
*88 _018_
*89 _019_
*90 _020_
*91 _021_
*92 _022_
*93 _023_
*94 _024_
*95 _025_
*96 _026_
*97 _027_
*98 _028_
*99 _029_
*100 _030_
*101 _031_
*102 _032_
*103 _033_
*104 _034_
*105 _035_
*106 _036_
*107 _037_
*108 _038_
*109 _039_
*110 _040_
*111 _041_
*112 _042_
*113 _043_
*114 _044_
*115 _045_
*116 _046_
*117 _047_
*118 _048_
*119 _049_
*120 _050_
*121 _051_
*122 _052_
*123 _053_
*124 _054_
*125 _055_
*126 _056_
*127 _057_
*128 _058_
*129 _059_
*130 _060_
*131 _061_
*132 _062_
*133 _063_
*134 _064_
*135 _065_
*136 _066_
*137 _067_
*138 _068_
*139 _069_
*140 _070_
*141 _071_
*142 _072_
*143 _073_
*144 _074_
*145 _075_
*146 _076_
*147 _077_
*148 _078_
*149 _079_
*150 _080_
*151 _081_
*152 _082_
*153 _083_
*154 _084_
*155 _085_
*156 _086_
*157 _087_
*158 _088_
*159 _089_
*160 _090_
*161 _091_
*162 _092_
*163 _093_
*164 _094_
*165 _095_
*166 _096_
*167 _097_
*168 _098_
*169 _099_
*170 _100_
*171 _101_
*172 _102_
*173 _103_
*174 _104_
*175 _105_
*176 _106_
*177 _107_
*178 _108_
*179 _109_
*180 _110_
*181 _111_
*182 _112_
*183 _113_
*184 _114_
*185 _115_
*186 _116_
*187 _117_
*188 _118_
*189 _119_
*190 _120_
*191 _121_
*192 _122_
*193 _123_
*194 _124_
*195 _125_
*196 _126_
*197 _127_
*198 _128_
*199 _129_
*200 _130_
*201 _131_
*202 _132_
*203 _133_
*204 _134_
*205 _135_
*206 _136_
*207 _137_
*208 _138_
*209 _139_
*210 _140_
*211 _141_
*212 _142_
*213 _143_
*214 _144_
*215 _145_
*216 _146_
*217 _147_
*218 _148_
*219 _149_
*220 _150_
*221 _151_
*222 _152_
*223 _153_
*224 _154_
*225 _155_
*226 _156_
*227 _157_
*228 _158_
*229 _159_
*230 _160_
*231 _161_
*232 _162_
*233 _163_
*234 _164_
*235 _165_
*236 _166_
*237 _167_
*238 _168_
*239 _169_
*240 _170_
*241 _171_
*242 _172_
*243 _173_
*244 _174_
*245 _175_
*246 _176_
*247 _177_
*248 _178_
*249 _179_
*250 _180_
*251 _181_
*252 _182_
*253 _183_
*254 _184_
*255 _185_
*256 _186_
*257 _187_
*258 _188_
*259 _189_
*260 _190_
*261 _191_
*262 _192_
*263 _193_
*264 _194_
*265 _195_
*266 _196_
*267 _197_
*268 _198_
*269 _199_
*270 _200_
*271 _201_
*272 _202_
*273 _203_
*274 _204_
*275 _205_
*276 _206_
*277 _207_
*278 _208_
*279 _209_
*280 _210_
*281 _211_
*282 _212_
*283 _213_
*284 _214_
*285 _215_
*286 _216_
*287 _217_
*288 _218_
*289 _219_
*290 _220_
*291 _221_
*292 _222_
*293 _223_
*294 _224_
*295 _225_
*296 _226_
*297 _227_
*298 _228_
*299 _229_
*300 _230_
*301 _231_
*302 _232_
*303 _233_
*304 _234_
*305 _235_
*306 _236_
*307 _237_
*308 _238_
*309 acu_act\[32\]
*310 clknet_0_clk
*311 clknet_2_0__leaf_clk
*312 clknet_2_1__leaf_clk
*313 clknet_2_2__leaf_clk
*314 clknet_2_3__leaf_clk
*315 cnt_act\[0\]
*316 cnt_act\[1\]
*317 cnt_act\[2\]
*318 cnt_act\[3\]
*319 cnt_act\[4\]
*320 estado_act\[0\]
*321 estado_act\[1\]
*322 net1
*323 net10
*324 net11
*325 net12
*326 net13
*327 net14
*328 net15
*329 net16
*330 net17
*331 net18
*332 net19
*333 net2
*334 net20
*335 net21
*336 net22
*337 net23
*338 net24
*339 net25
*340 net26
*341 net27
*342 net28
*343 net29
*344 net3
*345 net30
*346 net31
*347 net32
*348 net33
*349 net34
*350 net35
*351 net36
*352 net37
*353 net38
*354 net39
*355 net4
*356 net40
*357 net41
*358 net42
*359 net43
*360 net44
*361 net45
*362 net46
*363 net47
*364 net48
*365 net49
*366 net5
*367 net50
*368 net51
*369 net52
*370 net53
*371 net54
*372 net55
*373 net56
*374 net57
*375 net58
*376 net59
*377 net6
*378 net60
*379 net61
*380 net62
*381 net63
*382 net64
*383 net65
*384 net66
*385 net67
*386 net68
*387 net69
*388 net7
*389 net70
*390 net71
*391 net72
*392 net73
*393 net74
*394 net75
*395 net76
*396 net77
*397 net8
*398 net9
*399 ANTENNA_1
*400 ANTENNA_2
*401 ANTENNA_3
*402 ANTENNA_4
*403 ANTENNA_5
*404 ANTENNA_6
*405 FILLER_0_0_109
*406 FILLER_0_0_113
*407 FILLER_0_0_118
*408 FILLER_0_0_130
*409 FILLER_0_0_138
*410 FILLER_0_0_141
*411 FILLER_0_0_147
*412 FILLER_0_0_154
*413 FILLER_0_0_166
*414 FILLER_0_0_169
*415 FILLER_0_0_175
*416 FILLER_0_0_182
*417 FILLER_0_0_194
*418 FILLER_0_0_197
*419 FILLER_0_0_20
*420 FILLER_0_0_209
*421 FILLER_0_0_219
*422 FILLER_0_0_223
*423 FILLER_0_0_225
*424 FILLER_0_0_237
*425 FILLER_0_0_245
*426 FILLER_0_0_253
*427 FILLER_0_0_265
*428 FILLER_0_0_273
*429 FILLER_0_0_281
*430 FILLER_0_0_29
*431 FILLER_0_0_293
*432 FILLER_0_0_305
*433 FILLER_0_0_315
*434 FILLER_0_0_327
*435 FILLER_0_0_335
*436 FILLER_0_0_337
*437 FILLER_0_0_345
*438 FILLER_0_0_357
*439 FILLER_0_0_363
*440 FILLER_0_0_365
*441 FILLER_0_0_373
*442 FILLER_0_0_378
*443 FILLER_0_0_390
*444 FILLER_0_0_393
*445 FILLER_0_0_405
*446 FILLER_0_0_41
*447 FILLER_0_0_412
*448 FILLER_0_0_421
*449 FILLER_0_0_433
*450 FILLER_0_0_441
*451 FILLER_0_0_447
*452 FILLER_0_0_449
*453 FILLER_0_0_461
*454 FILLER_0_0_475
*455 FILLER_0_0_477
*456 FILLER_0_0_489
*457 FILLER_0_0_49
*458 FILLER_0_0_501
*459 FILLER_0_0_505
*460 FILLER_0_0_57
*461 FILLER_0_0_69
*462 FILLER_0_0_73
*463 FILLER_0_0_76
*464 FILLER_0_0_85
*465 FILLER_0_0_9
*466 FILLER_0_0_97
*467 FILLER_0_10_109
*468 FILLER_0_10_121
*469 FILLER_0_10_133
*470 FILLER_0_10_139
*471 FILLER_0_10_141
*472 FILLER_0_10_15
*473 FILLER_0_10_153
*474 FILLER_0_10_165
*475 FILLER_0_10_177
*476 FILLER_0_10_189
*477 FILLER_0_10_195
*478 FILLER_0_10_197
*479 FILLER_0_10_209
*480 FILLER_0_10_221
*481 FILLER_0_10_233
*482 FILLER_0_10_245
*483 FILLER_0_10_251
*484 FILLER_0_10_253
*485 FILLER_0_10_265
*486 FILLER_0_10_27
*487 FILLER_0_10_277
*488 FILLER_0_10_289
*489 FILLER_0_10_29
*490 FILLER_0_10_3
*491 FILLER_0_10_301
*492 FILLER_0_10_307
*493 FILLER_0_10_309
*494 FILLER_0_10_321
*495 FILLER_0_10_333
*496 FILLER_0_10_345
*497 FILLER_0_10_357
*498 FILLER_0_10_363
*499 FILLER_0_10_365
*500 FILLER_0_10_377
*501 FILLER_0_10_389
*502 FILLER_0_10_401
*503 FILLER_0_10_41
*504 FILLER_0_10_413
*505 FILLER_0_10_419
*506 FILLER_0_10_421
*507 FILLER_0_10_433
*508 FILLER_0_10_445
*509 FILLER_0_10_457
*510 FILLER_0_10_469
*511 FILLER_0_10_475
*512 FILLER_0_10_477
*513 FILLER_0_10_489
*514 FILLER_0_10_501
*515 FILLER_0_10_53
*516 FILLER_0_10_65
*517 FILLER_0_10_77
*518 FILLER_0_10_83
*519 FILLER_0_10_85
*520 FILLER_0_10_97
*521 FILLER_0_11_105
*522 FILLER_0_11_111
*523 FILLER_0_11_113
*524 FILLER_0_11_125
*525 FILLER_0_11_137
*526 FILLER_0_11_149
*527 FILLER_0_11_15
*528 FILLER_0_11_161
*529 FILLER_0_11_167
*530 FILLER_0_11_169
*531 FILLER_0_11_181
*532 FILLER_0_11_193
*533 FILLER_0_11_205
*534 FILLER_0_11_217
*535 FILLER_0_11_223
*536 FILLER_0_11_225
*537 FILLER_0_11_237
*538 FILLER_0_11_249
*539 FILLER_0_11_261
*540 FILLER_0_11_27
*541 FILLER_0_11_273
*542 FILLER_0_11_279
*543 FILLER_0_11_281
*544 FILLER_0_11_293
*545 FILLER_0_11_3
*546 FILLER_0_11_305
*547 FILLER_0_11_317
*548 FILLER_0_11_329
*549 FILLER_0_11_335
*550 FILLER_0_11_337
*551 FILLER_0_11_349
*552 FILLER_0_11_361
*553 FILLER_0_11_373
*554 FILLER_0_11_385
*555 FILLER_0_11_39
*556 FILLER_0_11_391
*557 FILLER_0_11_393
*558 FILLER_0_11_405
*559 FILLER_0_11_417
*560 FILLER_0_11_429
*561 FILLER_0_11_441
*562 FILLER_0_11_447
*563 FILLER_0_11_449
*564 FILLER_0_11_461
*565 FILLER_0_11_473
*566 FILLER_0_11_485
*567 FILLER_0_11_497
*568 FILLER_0_11_503
*569 FILLER_0_11_505
*570 FILLER_0_11_51
*571 FILLER_0_11_55
*572 FILLER_0_11_57
*573 FILLER_0_11_69
*574 FILLER_0_11_81
*575 FILLER_0_11_93
*576 FILLER_0_12_109
*577 FILLER_0_12_121
*578 FILLER_0_12_133
*579 FILLER_0_12_139
*580 FILLER_0_12_141
*581 FILLER_0_12_153
*582 FILLER_0_12_165
*583 FILLER_0_12_177
*584 FILLER_0_12_18
*585 FILLER_0_12_189
*586 FILLER_0_12_195
*587 FILLER_0_12_197
*588 FILLER_0_12_209
*589 FILLER_0_12_221
*590 FILLER_0_12_233
*591 FILLER_0_12_245
*592 FILLER_0_12_251
*593 FILLER_0_12_253
*594 FILLER_0_12_26
*595 FILLER_0_12_265
*596 FILLER_0_12_277
*597 FILLER_0_12_289
*598 FILLER_0_12_29
*599 FILLER_0_12_301
*600 FILLER_0_12_307
*601 FILLER_0_12_309
*602 FILLER_0_12_321
*603 FILLER_0_12_333
*604 FILLER_0_12_345
*605 FILLER_0_12_357
*606 FILLER_0_12_363
*607 FILLER_0_12_365
*608 FILLER_0_12_377
*609 FILLER_0_12_389
*610 FILLER_0_12_401
*611 FILLER_0_12_41
*612 FILLER_0_12_413
*613 FILLER_0_12_419
*614 FILLER_0_12_421
*615 FILLER_0_12_433
*616 FILLER_0_12_445
*617 FILLER_0_12_457
*618 FILLER_0_12_469
*619 FILLER_0_12_475
*620 FILLER_0_12_477
*621 FILLER_0_12_489
*622 FILLER_0_12_501
*623 FILLER_0_12_53
*624 FILLER_0_12_6
*625 FILLER_0_12_65
*626 FILLER_0_12_77
*627 FILLER_0_12_83
*628 FILLER_0_12_85
*629 FILLER_0_12_97
*630 FILLER_0_13_105
*631 FILLER_0_13_111
*632 FILLER_0_13_113
*633 FILLER_0_13_125
*634 FILLER_0_13_137
*635 FILLER_0_13_149
*636 FILLER_0_13_15
*637 FILLER_0_13_161
*638 FILLER_0_13_167
*639 FILLER_0_13_169
*640 FILLER_0_13_181
*641 FILLER_0_13_193
*642 FILLER_0_13_205
*643 FILLER_0_13_217
*644 FILLER_0_13_223
*645 FILLER_0_13_225
*646 FILLER_0_13_237
*647 FILLER_0_13_249
*648 FILLER_0_13_261
*649 FILLER_0_13_27
*650 FILLER_0_13_273
*651 FILLER_0_13_279
*652 FILLER_0_13_281
*653 FILLER_0_13_293
*654 FILLER_0_13_3
*655 FILLER_0_13_305
*656 FILLER_0_13_317
*657 FILLER_0_13_329
*658 FILLER_0_13_335
*659 FILLER_0_13_337
*660 FILLER_0_13_349
*661 FILLER_0_13_361
*662 FILLER_0_13_373
*663 FILLER_0_13_385
*664 FILLER_0_13_39
*665 FILLER_0_13_391
*666 FILLER_0_13_393
*667 FILLER_0_13_405
*668 FILLER_0_13_417
*669 FILLER_0_13_429
*670 FILLER_0_13_441
*671 FILLER_0_13_447
*672 FILLER_0_13_449
*673 FILLER_0_13_461
*674 FILLER_0_13_473
*675 FILLER_0_13_485
*676 FILLER_0_13_497
*677 FILLER_0_13_503
*678 FILLER_0_13_505
*679 FILLER_0_13_51
*680 FILLER_0_13_55
*681 FILLER_0_13_57
*682 FILLER_0_13_69
*683 FILLER_0_13_81
*684 FILLER_0_13_93
*685 FILLER_0_14_109
*686 FILLER_0_14_121
*687 FILLER_0_14_133
*688 FILLER_0_14_139
*689 FILLER_0_14_141
*690 FILLER_0_14_15
*691 FILLER_0_14_153
*692 FILLER_0_14_165
*693 FILLER_0_14_177
*694 FILLER_0_14_189
*695 FILLER_0_14_195
*696 FILLER_0_14_197
*697 FILLER_0_14_209
*698 FILLER_0_14_221
*699 FILLER_0_14_233
*700 FILLER_0_14_245
*701 FILLER_0_14_251
*702 FILLER_0_14_253
*703 FILLER_0_14_265
*704 FILLER_0_14_27
*705 FILLER_0_14_277
*706 FILLER_0_14_289
*707 FILLER_0_14_29
*708 FILLER_0_14_3
*709 FILLER_0_14_301
*710 FILLER_0_14_307
*711 FILLER_0_14_309
*712 FILLER_0_14_321
*713 FILLER_0_14_333
*714 FILLER_0_14_345
*715 FILLER_0_14_357
*716 FILLER_0_14_363
*717 FILLER_0_14_365
*718 FILLER_0_14_377
*719 FILLER_0_14_389
*720 FILLER_0_14_401
*721 FILLER_0_14_41
*722 FILLER_0_14_413
*723 FILLER_0_14_419
*724 FILLER_0_14_421
*725 FILLER_0_14_433
*726 FILLER_0_14_445
*727 FILLER_0_14_457
*728 FILLER_0_14_469
*729 FILLER_0_14_475
*730 FILLER_0_14_477
*731 FILLER_0_14_489
*732 FILLER_0_14_501
*733 FILLER_0_14_53
*734 FILLER_0_14_65
*735 FILLER_0_14_77
*736 FILLER_0_14_83
*737 FILLER_0_14_85
*738 FILLER_0_14_97
*739 FILLER_0_15_105
*740 FILLER_0_15_111
*741 FILLER_0_15_113
*742 FILLER_0_15_125
*743 FILLER_0_15_137
*744 FILLER_0_15_149
*745 FILLER_0_15_15
*746 FILLER_0_15_161
*747 FILLER_0_15_167
*748 FILLER_0_15_169
*749 FILLER_0_15_181
*750 FILLER_0_15_193
*751 FILLER_0_15_205
*752 FILLER_0_15_217
*753 FILLER_0_15_223
*754 FILLER_0_15_225
*755 FILLER_0_15_237
*756 FILLER_0_15_249
*757 FILLER_0_15_261
*758 FILLER_0_15_27
*759 FILLER_0_15_273
*760 FILLER_0_15_279
*761 FILLER_0_15_281
*762 FILLER_0_15_293
*763 FILLER_0_15_3
*764 FILLER_0_15_305
*765 FILLER_0_15_317
*766 FILLER_0_15_329
*767 FILLER_0_15_335
*768 FILLER_0_15_337
*769 FILLER_0_15_349
*770 FILLER_0_15_361
*771 FILLER_0_15_373
*772 FILLER_0_15_385
*773 FILLER_0_15_39
*774 FILLER_0_15_391
*775 FILLER_0_15_393
*776 FILLER_0_15_405
*777 FILLER_0_15_417
*778 FILLER_0_15_429
*779 FILLER_0_15_441
*780 FILLER_0_15_447
*781 FILLER_0_15_449
*782 FILLER_0_15_461
*783 FILLER_0_15_473
*784 FILLER_0_15_485
*785 FILLER_0_15_497
*786 FILLER_0_15_503
*787 FILLER_0_15_505
*788 FILLER_0_15_51
*789 FILLER_0_15_55
*790 FILLER_0_15_57
*791 FILLER_0_15_69
*792 FILLER_0_15_81
*793 FILLER_0_15_93
*794 FILLER_0_16_109
*795 FILLER_0_16_121
*796 FILLER_0_16_133
*797 FILLER_0_16_139
*798 FILLER_0_16_141
*799 FILLER_0_16_15
*800 FILLER_0_16_153
*801 FILLER_0_16_165
*802 FILLER_0_16_177
*803 FILLER_0_16_189
*804 FILLER_0_16_195
*805 FILLER_0_16_197
*806 FILLER_0_16_209
*807 FILLER_0_16_221
*808 FILLER_0_16_229
*809 FILLER_0_16_239
*810 FILLER_0_16_251
*811 FILLER_0_16_253
*812 FILLER_0_16_265
*813 FILLER_0_16_27
*814 FILLER_0_16_277
*815 FILLER_0_16_289
*816 FILLER_0_16_29
*817 FILLER_0_16_3
*818 FILLER_0_16_301
*819 FILLER_0_16_307
*820 FILLER_0_16_309
*821 FILLER_0_16_321
*822 FILLER_0_16_333
*823 FILLER_0_16_345
*824 FILLER_0_16_357
*825 FILLER_0_16_363
*826 FILLER_0_16_365
*827 FILLER_0_16_377
*828 FILLER_0_16_389
*829 FILLER_0_16_401
*830 FILLER_0_16_41
*831 FILLER_0_16_413
*832 FILLER_0_16_419
*833 FILLER_0_16_421
*834 FILLER_0_16_433
*835 FILLER_0_16_445
*836 FILLER_0_16_457
*837 FILLER_0_16_469
*838 FILLER_0_16_475
*839 FILLER_0_16_477
*840 FILLER_0_16_489
*841 FILLER_0_16_501
*842 FILLER_0_16_53
*843 FILLER_0_16_65
*844 FILLER_0_16_77
*845 FILLER_0_16_83
*846 FILLER_0_16_85
*847 FILLER_0_16_97
*848 FILLER_0_17_105
*849 FILLER_0_17_111
*850 FILLER_0_17_113
*851 FILLER_0_17_125
*852 FILLER_0_17_137
*853 FILLER_0_17_149
*854 FILLER_0_17_15
*855 FILLER_0_17_161
*856 FILLER_0_17_167
*857 FILLER_0_17_169
*858 FILLER_0_17_181
*859 FILLER_0_17_193
*860 FILLER_0_17_205
*861 FILLER_0_17_217
*862 FILLER_0_17_223
*863 FILLER_0_17_237
*864 FILLER_0_17_249
*865 FILLER_0_17_27
*866 FILLER_0_17_271
*867 FILLER_0_17_279
*868 FILLER_0_17_281
*869 FILLER_0_17_293
*870 FILLER_0_17_3
*871 FILLER_0_17_305
*872 FILLER_0_17_317
*873 FILLER_0_17_329
*874 FILLER_0_17_335
*875 FILLER_0_17_337
*876 FILLER_0_17_349
*877 FILLER_0_17_361
*878 FILLER_0_17_373
*879 FILLER_0_17_385
*880 FILLER_0_17_39
*881 FILLER_0_17_391
*882 FILLER_0_17_393
*883 FILLER_0_17_405
*884 FILLER_0_17_417
*885 FILLER_0_17_429
*886 FILLER_0_17_441
*887 FILLER_0_17_447
*888 FILLER_0_17_449
*889 FILLER_0_17_461
*890 FILLER_0_17_473
*891 FILLER_0_17_485
*892 FILLER_0_17_497
*893 FILLER_0_17_503
*894 FILLER_0_17_505
*895 FILLER_0_17_51
*896 FILLER_0_17_55
*897 FILLER_0_17_57
*898 FILLER_0_17_69
*899 FILLER_0_17_81
*900 FILLER_0_17_93
*901 FILLER_0_18_109
*902 FILLER_0_18_121
*903 FILLER_0_18_133
*904 FILLER_0_18_139
*905 FILLER_0_18_141
*906 FILLER_0_18_15
*907 FILLER_0_18_153
*908 FILLER_0_18_165
*909 FILLER_0_18_177
*910 FILLER_0_18_189
*911 FILLER_0_18_195
*912 FILLER_0_18_197
*913 FILLER_0_18_209
*914 FILLER_0_18_221
*915 FILLER_0_18_244
*916 FILLER_0_18_253
*917 FILLER_0_18_27
*918 FILLER_0_18_272
*919 FILLER_0_18_284
*920 FILLER_0_18_29
*921 FILLER_0_18_296
*922 FILLER_0_18_3
*923 FILLER_0_18_309
*924 FILLER_0_18_317
*925 FILLER_0_18_327
*926 FILLER_0_18_339
*927 FILLER_0_18_351
*928 FILLER_0_18_363
*929 FILLER_0_18_374
*930 FILLER_0_18_386
*931 FILLER_0_18_398
*932 FILLER_0_18_41
*933 FILLER_0_18_410
*934 FILLER_0_18_418
*935 FILLER_0_18_430
*936 FILLER_0_18_442
*937 FILLER_0_18_454
*938 FILLER_0_18_466
*939 FILLER_0_18_474
*940 FILLER_0_18_477
*941 FILLER_0_18_489
*942 FILLER_0_18_501
*943 FILLER_0_18_53
*944 FILLER_0_18_65
*945 FILLER_0_18_77
*946 FILLER_0_18_83
*947 FILLER_0_18_85
*948 FILLER_0_18_97
*949 FILLER_0_19_105
*950 FILLER_0_19_111
*951 FILLER_0_19_113
*952 FILLER_0_19_125
*953 FILLER_0_19_137
*954 FILLER_0_19_149
*955 FILLER_0_19_161
*956 FILLER_0_19_167
*957 FILLER_0_19_169
*958 FILLER_0_19_181
*959 FILLER_0_19_19
*960 FILLER_0_19_193
*961 FILLER_0_19_205
*962 FILLER_0_19_217
*963 FILLER_0_19_223
*964 FILLER_0_19_225
*965 FILLER_0_19_237
*966 FILLER_0_19_249
*967 FILLER_0_19_261
*968 FILLER_0_19_273
*969 FILLER_0_19_279
*970 FILLER_0_19_281
*971 FILLER_0_19_293
*972 FILLER_0_19_31
*973 FILLER_0_19_321
*974 FILLER_0_19_333
*975 FILLER_0_19_337
*976 FILLER_0_19_349
*977 FILLER_0_19_355
*978 FILLER_0_19_375
*979 FILLER_0_19_387
*980 FILLER_0_19_391
*981 FILLER_0_19_393
*982 FILLER_0_19_405
*983 FILLER_0_19_417
*984 FILLER_0_19_429
*985 FILLER_0_19_43
*986 FILLER_0_19_441
*987 FILLER_0_19_447
*988 FILLER_0_19_449
*989 FILLER_0_19_461
*990 FILLER_0_19_473
*991 FILLER_0_19_485
*992 FILLER_0_19_497
*993 FILLER_0_19_503
*994 FILLER_0_19_505
*995 FILLER_0_19_55
*996 FILLER_0_19_57
*997 FILLER_0_19_69
*998 FILLER_0_19_7
*999 FILLER_0_19_81
*1000 FILLER_0_19_93
*1001 FILLER_0_1_105
*1002 FILLER_0_1_111
*1003 FILLER_0_1_113
*1004 FILLER_0_1_125
*1005 FILLER_0_1_137
*1006 FILLER_0_1_149
*1007 FILLER_0_1_161
*1008 FILLER_0_1_167
*1009 FILLER_0_1_169
*1010 FILLER_0_1_181
*1011 FILLER_0_1_193
*1012 FILLER_0_1_205
*1013 FILLER_0_1_21
*1014 FILLER_0_1_217
*1015 FILLER_0_1_223
*1016 FILLER_0_1_225
*1017 FILLER_0_1_237
*1018 FILLER_0_1_249
*1019 FILLER_0_1_261
*1020 FILLER_0_1_273
*1021 FILLER_0_1_279
*1022 FILLER_0_1_281
*1023 FILLER_0_1_293
*1024 FILLER_0_1_305
*1025 FILLER_0_1_317
*1026 FILLER_0_1_329
*1027 FILLER_0_1_33
*1028 FILLER_0_1_335
*1029 FILLER_0_1_337
*1030 FILLER_0_1_349
*1031 FILLER_0_1_361
*1032 FILLER_0_1_373
*1033 FILLER_0_1_385
*1034 FILLER_0_1_391
*1035 FILLER_0_1_393
*1036 FILLER_0_1_405
*1037 FILLER_0_1_417
*1038 FILLER_0_1_429
*1039 FILLER_0_1_441
*1040 FILLER_0_1_447
*1041 FILLER_0_1_449
*1042 FILLER_0_1_45
*1043 FILLER_0_1_461
*1044 FILLER_0_1_473
*1045 FILLER_0_1_485
*1046 FILLER_0_1_497
*1047 FILLER_0_1_503
*1048 FILLER_0_1_505
*1049 FILLER_0_1_510
*1050 FILLER_0_1_53
*1051 FILLER_0_1_57
*1052 FILLER_0_1_69
*1053 FILLER_0_1_81
*1054 FILLER_0_1_9
*1055 FILLER_0_1_93
*1056 FILLER_0_20_109
*1057 FILLER_0_20_121
*1058 FILLER_0_20_133
*1059 FILLER_0_20_139
*1060 FILLER_0_20_141
*1061 FILLER_0_20_15
*1062 FILLER_0_20_153
*1063 FILLER_0_20_165
*1064 FILLER_0_20_177
*1065 FILLER_0_20_189
*1066 FILLER_0_20_195
*1067 FILLER_0_20_197
*1068 FILLER_0_20_209
*1069 FILLER_0_20_221
*1070 FILLER_0_20_233
*1071 FILLER_0_20_245
*1072 FILLER_0_20_251
*1073 FILLER_0_20_253
*1074 FILLER_0_20_265
*1075 FILLER_0_20_27
*1076 FILLER_0_20_277
*1077 FILLER_0_20_289
*1078 FILLER_0_20_29
*1079 FILLER_0_20_3
*1080 FILLER_0_20_301
*1081 FILLER_0_20_307
*1082 FILLER_0_20_318
*1083 FILLER_0_20_330
*1084 FILLER_0_20_342
*1085 FILLER_0_20_354
*1086 FILLER_0_20_362
*1087 FILLER_0_20_374
*1088 FILLER_0_20_378
*1089 FILLER_0_20_390
*1090 FILLER_0_20_402
*1091 FILLER_0_20_41
*1092 FILLER_0_20_414
*1093 FILLER_0_20_421
*1094 FILLER_0_20_433
*1095 FILLER_0_20_445
*1096 FILLER_0_20_457
*1097 FILLER_0_20_469
*1098 FILLER_0_20_475
*1099 FILLER_0_20_477
*1100 FILLER_0_20_489
*1101 FILLER_0_20_501
*1102 FILLER_0_20_509
*1103 FILLER_0_20_53
*1104 FILLER_0_20_65
*1105 FILLER_0_20_77
*1106 FILLER_0_20_83
*1107 FILLER_0_20_85
*1108 FILLER_0_20_97
*1109 FILLER_0_21_105
*1110 FILLER_0_21_111
*1111 FILLER_0_21_113
*1112 FILLER_0_21_125
*1113 FILLER_0_21_133
*1114 FILLER_0_21_15
*1115 FILLER_0_21_156
*1116 FILLER_0_21_169
*1117 FILLER_0_21_181
*1118 FILLER_0_21_193
*1119 FILLER_0_21_205
*1120 FILLER_0_21_217
*1121 FILLER_0_21_223
*1122 FILLER_0_21_225
*1123 FILLER_0_21_237
*1124 FILLER_0_21_249
*1125 FILLER_0_21_261
*1126 FILLER_0_21_27
*1127 FILLER_0_21_273
*1128 FILLER_0_21_279
*1129 FILLER_0_21_281
*1130 FILLER_0_21_293
*1131 FILLER_0_21_3
*1132 FILLER_0_21_305
*1133 FILLER_0_21_317
*1134 FILLER_0_21_329
*1135 FILLER_0_21_335
*1136 FILLER_0_21_337
*1137 FILLER_0_21_349
*1138 FILLER_0_21_361
*1139 FILLER_0_21_373
*1140 FILLER_0_21_385
*1141 FILLER_0_21_39
*1142 FILLER_0_21_391
*1143 FILLER_0_21_393
*1144 FILLER_0_21_405
*1145 FILLER_0_21_417
*1146 FILLER_0_21_429
*1147 FILLER_0_21_441
*1148 FILLER_0_21_447
*1149 FILLER_0_21_449
*1150 FILLER_0_21_461
*1151 FILLER_0_21_473
*1152 FILLER_0_21_485
*1153 FILLER_0_21_497
*1154 FILLER_0_21_503
*1155 FILLER_0_21_505
*1156 FILLER_0_21_51
*1157 FILLER_0_21_55
*1158 FILLER_0_21_57
*1159 FILLER_0_21_69
*1160 FILLER_0_21_81
*1161 FILLER_0_21_93
*1162 FILLER_0_22_109
*1163 FILLER_0_22_121
*1164 FILLER_0_22_133
*1165 FILLER_0_22_139
*1166 FILLER_0_22_141
*1167 FILLER_0_22_15
*1168 FILLER_0_22_153
*1169 FILLER_0_22_165
*1170 FILLER_0_22_177
*1171 FILLER_0_22_189
*1172 FILLER_0_22_195
*1173 FILLER_0_22_197
*1174 FILLER_0_22_209
*1175 FILLER_0_22_221
*1176 FILLER_0_22_233
*1177 FILLER_0_22_245
*1178 FILLER_0_22_251
*1179 FILLER_0_22_253
*1180 FILLER_0_22_265
*1181 FILLER_0_22_27
*1182 FILLER_0_22_277
*1183 FILLER_0_22_289
*1184 FILLER_0_22_29
*1185 FILLER_0_22_3
*1186 FILLER_0_22_301
*1187 FILLER_0_22_307
*1188 FILLER_0_22_309
*1189 FILLER_0_22_321
*1190 FILLER_0_22_333
*1191 FILLER_0_22_345
*1192 FILLER_0_22_357
*1193 FILLER_0_22_363
*1194 FILLER_0_22_365
*1195 FILLER_0_22_377
*1196 FILLER_0_22_389
*1197 FILLER_0_22_401
*1198 FILLER_0_22_41
*1199 FILLER_0_22_413
*1200 FILLER_0_22_419
*1201 FILLER_0_22_421
*1202 FILLER_0_22_433
*1203 FILLER_0_22_445
*1204 FILLER_0_22_457
*1205 FILLER_0_22_469
*1206 FILLER_0_22_475
*1207 FILLER_0_22_477
*1208 FILLER_0_22_489
*1209 FILLER_0_22_501
*1210 FILLER_0_22_53
*1211 FILLER_0_22_65
*1212 FILLER_0_22_77
*1213 FILLER_0_22_83
*1214 FILLER_0_22_85
*1215 FILLER_0_22_97
*1216 FILLER_0_23_105
*1217 FILLER_0_23_111
*1218 FILLER_0_23_113
*1219 FILLER_0_23_125
*1220 FILLER_0_23_137
*1221 FILLER_0_23_149
*1222 FILLER_0_23_15
*1223 FILLER_0_23_161
*1224 FILLER_0_23_167
*1225 FILLER_0_23_169
*1226 FILLER_0_23_181
*1227 FILLER_0_23_194
*1228 FILLER_0_23_206
*1229 FILLER_0_23_218
*1230 FILLER_0_23_225
*1231 FILLER_0_23_237
*1232 FILLER_0_23_249
*1233 FILLER_0_23_261
*1234 FILLER_0_23_27
*1235 FILLER_0_23_273
*1236 FILLER_0_23_279
*1237 FILLER_0_23_281
*1238 FILLER_0_23_293
*1239 FILLER_0_23_3
*1240 FILLER_0_23_305
*1241 FILLER_0_23_317
*1242 FILLER_0_23_329
*1243 FILLER_0_23_335
*1244 FILLER_0_23_337
*1245 FILLER_0_23_349
*1246 FILLER_0_23_361
*1247 FILLER_0_23_373
*1248 FILLER_0_23_385
*1249 FILLER_0_23_39
*1250 FILLER_0_23_391
*1251 FILLER_0_23_393
*1252 FILLER_0_23_405
*1253 FILLER_0_23_417
*1254 FILLER_0_23_429
*1255 FILLER_0_23_441
*1256 FILLER_0_23_447
*1257 FILLER_0_23_449
*1258 FILLER_0_23_461
*1259 FILLER_0_23_473
*1260 FILLER_0_23_485
*1261 FILLER_0_23_497
*1262 FILLER_0_23_503
*1263 FILLER_0_23_505
*1264 FILLER_0_23_51
*1265 FILLER_0_23_55
*1266 FILLER_0_23_57
*1267 FILLER_0_23_69
*1268 FILLER_0_23_81
*1269 FILLER_0_23_93
*1270 FILLER_0_24_109
*1271 FILLER_0_24_121
*1272 FILLER_0_24_133
*1273 FILLER_0_24_139
*1274 FILLER_0_24_141
*1275 FILLER_0_24_15
*1276 FILLER_0_24_153
*1277 FILLER_0_24_165
*1278 FILLER_0_24_177
*1279 FILLER_0_24_197
*1280 FILLER_0_24_203
*1281 FILLER_0_24_223
*1282 FILLER_0_24_235
*1283 FILLER_0_24_247
*1284 FILLER_0_24_251
*1285 FILLER_0_24_253
*1286 FILLER_0_24_265
*1287 FILLER_0_24_27
*1288 FILLER_0_24_284
*1289 FILLER_0_24_29
*1290 FILLER_0_24_296
*1291 FILLER_0_24_3
*1292 FILLER_0_24_309
*1293 FILLER_0_24_321
*1294 FILLER_0_24_333
*1295 FILLER_0_24_358
*1296 FILLER_0_24_365
*1297 FILLER_0_24_377
*1298 FILLER_0_24_389
*1299 FILLER_0_24_401
*1300 FILLER_0_24_41
*1301 FILLER_0_24_413
*1302 FILLER_0_24_419
*1303 FILLER_0_24_421
*1304 FILLER_0_24_433
*1305 FILLER_0_24_445
*1306 FILLER_0_24_457
*1307 FILLER_0_24_469
*1308 FILLER_0_24_475
*1309 FILLER_0_24_477
*1310 FILLER_0_24_489
*1311 FILLER_0_24_501
*1312 FILLER_0_24_53
*1313 FILLER_0_24_65
*1314 FILLER_0_24_77
*1315 FILLER_0_24_83
*1316 FILLER_0_24_85
*1317 FILLER_0_24_97
*1318 FILLER_0_25_105
*1319 FILLER_0_25_111
*1320 FILLER_0_25_113
*1321 FILLER_0_25_125
*1322 FILLER_0_25_137
*1323 FILLER_0_25_149
*1324 FILLER_0_25_161
*1325 FILLER_0_25_167
*1326 FILLER_0_25_169
*1327 FILLER_0_25_181
*1328 FILLER_0_25_192
*1329 FILLER_0_25_200
*1330 FILLER_0_25_21
*1331 FILLER_0_25_211
*1332 FILLER_0_25_223
*1333 FILLER_0_25_234
*1334 FILLER_0_25_246
*1335 FILLER_0_25_258
*1336 FILLER_0_25_270
*1337 FILLER_0_25_278
*1338 FILLER_0_25_289
*1339 FILLER_0_25_301
*1340 FILLER_0_25_313
*1341 FILLER_0_25_325
*1342 FILLER_0_25_33
*1343 FILLER_0_25_333
*1344 FILLER_0_25_337
*1345 FILLER_0_25_349
*1346 FILLER_0_25_360
*1347 FILLER_0_25_372
*1348 FILLER_0_25_384
*1349 FILLER_0_25_393
*1350 FILLER_0_25_405
*1351 FILLER_0_25_417
*1352 FILLER_0_25_429
*1353 FILLER_0_25_441
*1354 FILLER_0_25_447
*1355 FILLER_0_25_449
*1356 FILLER_0_25_45
*1357 FILLER_0_25_461
*1358 FILLER_0_25_473
*1359 FILLER_0_25_485
*1360 FILLER_0_25_497
*1361 FILLER_0_25_503
*1362 FILLER_0_25_505
*1363 FILLER_0_25_53
*1364 FILLER_0_25_57
*1365 FILLER_0_25_69
*1366 FILLER_0_25_81
*1367 FILLER_0_25_9
*1368 FILLER_0_25_93
*1369 FILLER_0_26_109
*1370 FILLER_0_26_121
*1371 FILLER_0_26_133
*1372 FILLER_0_26_139
*1373 FILLER_0_26_141
*1374 FILLER_0_26_15
*1375 FILLER_0_26_153
*1376 FILLER_0_26_165
*1377 FILLER_0_26_177
*1378 FILLER_0_26_189
*1379 FILLER_0_26_195
*1380 FILLER_0_26_206
*1381 FILLER_0_26_218
*1382 FILLER_0_26_230
*1383 FILLER_0_26_250
*1384 FILLER_0_26_253
*1385 FILLER_0_26_265
*1386 FILLER_0_26_280
*1387 FILLER_0_26_29
*1388 FILLER_0_26_292
*1389 FILLER_0_26_3
*1390 FILLER_0_26_304
*1391 FILLER_0_26_309
*1392 FILLER_0_26_321
*1393 FILLER_0_26_333
*1394 FILLER_0_26_341
*1395 FILLER_0_26_349
*1396 FILLER_0_26_361
*1397 FILLER_0_26_365
*1398 FILLER_0_26_377
*1399 FILLER_0_26_389
*1400 FILLER_0_26_408
*1401 FILLER_0_26_41
*1402 FILLER_0_26_421
*1403 FILLER_0_26_433
*1404 FILLER_0_26_445
*1405 FILLER_0_26_457
*1406 FILLER_0_26_469
*1407 FILLER_0_26_475
*1408 FILLER_0_26_477
*1409 FILLER_0_26_489
*1410 FILLER_0_26_501
*1411 FILLER_0_26_53
*1412 FILLER_0_26_65
*1413 FILLER_0_26_77
*1414 FILLER_0_26_83
*1415 FILLER_0_26_85
*1416 FILLER_0_26_97
*1417 FILLER_0_27_105
*1418 FILLER_0_27_11
*1419 FILLER_0_27_111
*1420 FILLER_0_27_113
*1421 FILLER_0_27_125
*1422 FILLER_0_27_137
*1423 FILLER_0_27_149
*1424 FILLER_0_27_161
*1425 FILLER_0_27_167
*1426 FILLER_0_27_169
*1427 FILLER_0_27_181
*1428 FILLER_0_27_193
*1429 FILLER_0_27_205
*1430 FILLER_0_27_217
*1431 FILLER_0_27_223
*1432 FILLER_0_27_225
*1433 FILLER_0_27_237
*1434 FILLER_0_27_256
*1435 FILLER_0_27_268
*1436 FILLER_0_27_281
*1437 FILLER_0_27_291
*1438 FILLER_0_27_295
*1439 FILLER_0_27_3
*1440 FILLER_0_27_307
*1441 FILLER_0_27_319
*1442 FILLER_0_27_331
*1443 FILLER_0_27_335
*1444 FILLER_0_27_337
*1445 FILLER_0_27_345
*1446 FILLER_0_27_355
*1447 FILLER_0_27_367
*1448 FILLER_0_27_379
*1449 FILLER_0_27_39
*1450 FILLER_0_27_391
*1451 FILLER_0_27_393
*1452 FILLER_0_27_412
*1453 FILLER_0_27_424
*1454 FILLER_0_27_436
*1455 FILLER_0_27_449
*1456 FILLER_0_27_461
*1457 FILLER_0_27_473
*1458 FILLER_0_27_485
*1459 FILLER_0_27_497
*1460 FILLER_0_27_503
*1461 FILLER_0_27_505
*1462 FILLER_0_27_51
*1463 FILLER_0_27_55
*1464 FILLER_0_27_57
*1465 FILLER_0_27_69
*1466 FILLER_0_27_81
*1467 FILLER_0_27_93
*1468 FILLER_0_28_109
*1469 FILLER_0_28_121
*1470 FILLER_0_28_133
*1471 FILLER_0_28_139
*1472 FILLER_0_28_141
*1473 FILLER_0_28_15
*1474 FILLER_0_28_153
*1475 FILLER_0_28_165
*1476 FILLER_0_28_177
*1477 FILLER_0_28_189
*1478 FILLER_0_28_195
*1479 FILLER_0_28_197
*1480 FILLER_0_28_220
*1481 FILLER_0_28_232
*1482 FILLER_0_28_244
*1483 FILLER_0_28_253
*1484 FILLER_0_28_257
*1485 FILLER_0_28_264
*1486 FILLER_0_28_27
*1487 FILLER_0_28_276
*1488 FILLER_0_28_288
*1489 FILLER_0_28_29
*1490 FILLER_0_28_3
*1491 FILLER_0_28_300
*1492 FILLER_0_28_309
*1493 FILLER_0_28_321
*1494 FILLER_0_28_333
*1495 FILLER_0_28_345
*1496 FILLER_0_28_357
*1497 FILLER_0_28_363
*1498 FILLER_0_28_365
*1499 FILLER_0_28_377
*1500 FILLER_0_28_383
*1501 FILLER_0_28_41
*1502 FILLER_0_28_412
*1503 FILLER_0_28_421
*1504 FILLER_0_28_433
*1505 FILLER_0_28_445
*1506 FILLER_0_28_457
*1507 FILLER_0_28_46
*1508 FILLER_0_28_469
*1509 FILLER_0_28_475
*1510 FILLER_0_28_477
*1511 FILLER_0_28_489
*1512 FILLER_0_28_501
*1513 FILLER_0_28_56
*1514 FILLER_0_28_68
*1515 FILLER_0_28_80
*1516 FILLER_0_28_85
*1517 FILLER_0_28_97
*1518 FILLER_0_29_105
*1519 FILLER_0_29_111
*1520 FILLER_0_29_113
*1521 FILLER_0_29_125
*1522 FILLER_0_29_137
*1523 FILLER_0_29_149
*1524 FILLER_0_29_15
*1525 FILLER_0_29_161
*1526 FILLER_0_29_167
*1527 FILLER_0_29_169
*1528 FILLER_0_29_181
*1529 FILLER_0_29_193
*1530 FILLER_0_29_205
*1531 FILLER_0_29_217
*1532 FILLER_0_29_223
*1533 FILLER_0_29_225
*1534 FILLER_0_29_237
*1535 FILLER_0_29_249
*1536 FILLER_0_29_261
*1537 FILLER_0_29_266
*1538 FILLER_0_29_27
*1539 FILLER_0_29_278
*1540 FILLER_0_29_281
*1541 FILLER_0_29_3
*1542 FILLER_0_29_302
*1543 FILLER_0_29_314
*1544 FILLER_0_29_326
*1545 FILLER_0_29_334
*1546 FILLER_0_29_337
*1547 FILLER_0_29_35
*1548 FILLER_0_29_352
*1549 FILLER_0_29_364
*1550 FILLER_0_29_376
*1551 FILLER_0_29_388
*1552 FILLER_0_29_393
*1553 FILLER_0_29_405
*1554 FILLER_0_29_417
*1555 FILLER_0_29_429
*1556 FILLER_0_29_441
*1557 FILLER_0_29_447
*1558 FILLER_0_29_449
*1559 FILLER_0_29_461
*1560 FILLER_0_29_473
*1561 FILLER_0_29_485
*1562 FILLER_0_29_497
*1563 FILLER_0_29_503
*1564 FILLER_0_29_505
*1565 FILLER_0_29_53
*1566 FILLER_0_29_57
*1567 FILLER_0_29_69
*1568 FILLER_0_29_81
*1569 FILLER_0_29_93
*1570 FILLER_0_2_109
*1571 FILLER_0_2_121
*1572 FILLER_0_2_133
*1573 FILLER_0_2_139
*1574 FILLER_0_2_141
*1575 FILLER_0_2_15
*1576 FILLER_0_2_153
*1577 FILLER_0_2_165
*1578 FILLER_0_2_177
*1579 FILLER_0_2_189
*1580 FILLER_0_2_195
*1581 FILLER_0_2_197